
     RDKit          2D

 41 45  0  0  0  0  0  0  0  0999 V2000
   -9.8348    3.3838    0.0000 C   0  0  0  0  0  0  0  0  0  0  0  0
   -9.5134    1.9187    0.0000 C   0  0  0  0  0  0  0  0  0  0  0  0
   -8.0838    1.4644    0.0000 C   0  0  0  0  0  0  0  0  0  0  0  0
   -7.7624   -0.0007    0.0000 C   0  0  0  0  0  0  0  0  0  0  0  0
   -6.3328   -0.4549    0.0000 C   0  0  0  0  0  0  0  0  0  0  0  0
   -6.0114   -1.9201    0.0000 C   0  0  0  0  0  0  0  0  0  0  0  0
   -7.1195   -2.9310    0.0000 C   0  0  0  0  0  0  0  0  0  0  0  0
   -4.5818   -2.3743    0.0000 C   0  0  0  0  0  0  0  0  0  0  0  0
   -4.1090   -3.7979    0.0000 C   0  0  0  0  0  0  0  0  0  0  0  0
   -2.6090   -3.7881    0.0000 C   0  0  0  0  0  0  0  0  0  0  0  0
   -2.1548   -2.3585    0.0000 C   0  0  0  0  0  0  0  0  0  0  0  0
   -0.7885   -1.7395    0.0000 C   0  0  0  0  0  0  0  0  0  0  0  0
    0.4307   -2.6133    0.0000 C   0  0  0  0  0  0  0  0  0  0  0  0
    1.7971   -1.9943    0.0000 C   0  0  0  0  0  0  0  0  0  0  0  0
    1.9441   -0.5015    0.0000 C   0  0  0  0  0  0  0  0  0  0  0  0
    3.3105    0.1175    0.0000 C   0  0  0  0  0  0  0  0  0  0  0  0
    3.4575    1.6103    0.0000 C   0  0  0  0  0  0  0  0  0  0  0  0
    4.8239    2.2293    0.0000 O   0  0  0  0  0  0  0  0  0  0  0  0
    6.0431    1.3555    0.0000 C   0  0  0  0  0  0  0  0  0  0  0  0
    5.8960   -0.1372    0.0000 O   0  0  0  0  0  0  0  0  0  0  0  0
    7.1153   -1.0110    0.0000 C   0  0  0  0  0  0  0  0  0  0  0  0
    6.9682   -2.5038    0.0000 C   0  0  0  0  0  0  0  0  0  0  0  0
    5.6019   -3.1228    0.0000 O   0  0  0  0  0  0  0  0  0  0  0  0
    8.4816   -0.3920    0.0000 C   0  0  0  0  0  0  0  0  0  0  0  0
    9.7008   -1.2657    0.0000 O   0  0  0  0  0  0  0  0  0  0  0  0
    8.6286    1.1008    0.0000 C   0  0  0  0  0  0  0  0  0  0  0  0
    9.9950    1.7198    0.0000 O   0  0  0  0  0  0  0  0  0  0  0  0
    7.4094    1.9746    0.0000 C   0  0  0  0  0  0  0  0  0  0  0  0
    7.5565    3.4673    0.0000 O   0  0  0  0  0  0  0  0  0  0  0  0
    2.2383    2.4840    0.0000 C   0  0  0  0  0  0  0  0  0  0  0  0
    0.8720    1.8650    0.0000 C   0  0  0  0  0  0  0  0  0  0  0  0
    0.7249    0.3723    0.0000 C   0  0  0  0  0  0  0  0  0  0  0  0
   -0.4943    1.2460    0.0000 C   0  0  0  0  0  0  0  0  0  0  0  0
   -0.6414   -0.2468    0.0000 C   0  0  0  0  0  0  0  0  0  0  0  0
   -1.8607    0.6270    0.0000 C   0  0  0  0  0  0  0  0  0  0  0  0
   -3.2270    0.0080    0.0000 C   0  0  0  0  0  0  0  0  0  0  0  0
   -3.3741   -1.4848    0.0000 C   0  0  0  0  0  0  0  0  0  0  0  0
   -4.6779   -0.7432    0.0000 C   0  0  0  0  0  0  0  0  0  0  0  0
   -6.9756    2.4754    0.0000 C   0  0  0  0  0  0  0  0  0  0  0  0
   -7.2970    3.9405    0.0000 C   0  0  0  0  0  0  0  0  0  0  0  0
   -5.5460    2.0211    0.0000 C   0  0  0  0  0  0  0  0  0  0  0  0
  1  2  1  0
  3  2  1  1
  3  4  1  0
  4  5  1  0
  5  6  1  0
  6  7  1  6
  6  8  1  0
  8  9  1  6
  9 10  1  0
 11 10  1  6
 11 12  1  0
 12 13  1  1
 13 14  1  0
 14 15  2  0
 15 16  1  0
 16 17  1  0
 17 18  1  6
 19 18  1  1
 19 20  1  0
 20 21  1  0
 21 22  1  1
 22 23  1  0
 21 24  1  0
 24 25  1  6
 24 26  1  0
 26 27  1  1
 26 28  1  0
 28 29  1  6
 17 30  1  0
 30 31  1  0
 31 32  1  0
 32 33  1  6
 32 34  1  0
 34 35  1  6
 35 36  1  0
 36 37  1  0
 37 38  1  6
  3 39  1  0
 39 40  1  0
 39 41  1  0
 37  8  1  0
 37 11  1  0
 34 12  1  0
 32 15  1  0
 28 19  1  0
M  END
>  <identifier>  (1) 
CNP0324146.1

>  <canonical_smiles>  (1) 
CC[C@H](CC[C@@H](C)[C@H]1CC[C@H]2[C@@H]3CC=C4C[C@@H](O[C@@H]5O[C@H](CO)[C@@H](O)[C@H](O)[C@H]5O)CC[C@]4(C)[C@H]3CC[C@]12C)C(C)C

>  <standard_inchi>  (1) 
InChI=1S/C35H60O6/c1-7-22(20(2)3)9-8-21(4)26-12-13-27-25-11-10-23-18-24(14-16-34(23,5)28(25)15-17-35(26,27)6)40-33-32(39)31(38)30(37)29(19-36)41-33/h10,20-22,24-33,36-39H,7-9,11-19H2,1-6H3/t21-,22-,24+,25+,26-,27+,28+,29-,30-,31+,32-,33-,34+,35-/m1/s1

>  <standard_inchi_key>  (1) 
NPJICTMALKLTFW-OFUAXYCQSA-N

>  <name>  (1) 
Daucosterol

>  <iupac_name>  (1) 
(2~{R},3~{R},4~{S},5~{S},6~{R})-2-[[(3~{S},8~{S},9~{S},10~{R},13~{R},14~{S},17~{R})-17-[(1~{R},4~{R})-4-ethyl-1,5-dimethyl-hexyl]-10,13-dimethyl-2,3,4,7,8,9,11,12,14,15,16,17-dodecahydro-1~{H}-cyclopenta[a]phenanthren-3-yl]oxy]-6-(hydroxymethyl)tetrahydropyran-3,4,5-triol

>  <annotation_level>  (1) 
5

>  <total_atom_count>  (1) 
101

>  <heavy_atom_count>  (1) 
41

>  <molecular_weight>  (1) 
576.86

>  <exact_molecular_weight>  (1) 
576.43899

>  <molecular_formula>  (1) 
C35H60O6

>  <alogp>  (1) 
5.85

>  <topological_polar_surface_area>  (1) 
99.38

>  <rotatable_bond_count>  (1) 
9

>  <hydrogen_bond_acceptors>  (1) 
6

>  <hydrogen_bond_donors>  (1) 
4

>  <hydrogen_bond_acceptors_lipinski>  (1) 
6

>  <hydrogen_bond_donors_lipinski>  (1) 
4

>  <lipinski_rule_of_five_violations>  (1) 
2

>  <aromatic_rings_count>  (1) 
0

>  <qed_drug_likeliness>  (1) 
0.26

>  <formal_charge>  (1) 
0

>  <fractioncsp3>  (1) 
0.94

>  <number_of_minimal_rings>  (1) 
5

>  <van_der_walls_volume>  (1) 
576.98

>  <contains_sugar>  (1) 
True

>  <contains_ring_sugars>  (1) 
True

>  <contains_linear_sugars>  (1) 
False

>  <murcko_framework>  (1) 
O1CCCCC1OC2CC3=CCC4C(CCC5CCCC54)C3CC2

>  <np_likeness>  (1) 
2.69

>  <chemical_class>  (1) 
Steroids and steroid derivatives

>  <chemical_sub_class>  (1) 
Stigmastanes and derivatives

>  <chemical_super_class>  (1) 
Lipids and lipid-like molecules

>  <direct_parent_classification>  (1) 
Stigmastanes and derivatives

>  <np_classifier_pathway>  (1) 
Terpenoids

>  <np_classifier_superclass>  (1) 
Steroids

>  <np_classifier_class>  (1) 
Stigmastane steroids

>  <np_classifier_is_glycoside>  (1) 
True

>  <organisms>  (1) 
Aaptos aaptos|Abies nobilis|Absidia caerulea|Abuta velutina|Acacia adunca|Acacia aulacocarpa|Acacia cambagei|Acacia linarioides|Acacia longifolia|Acacia salicina|Acanthaster planci|Acanthopanax gracilistylus|Acanthopanax sessiliflorum|Acanthothamnus aphyllus|Acanthus ilicifolius|Acer mandshuricum|Acer spicatum|Achillea biebersteinii|Achillea clypeolata|Achillea magnifica|Achillea wilhelmsii|Achlya bisexualis|Achyranthes bidentata|Achyranthes fauriei|Achyranthes japonica|Acicarpha tribuloides|Acinetobacter baumannii|Acinetobacter calcoaceticus|Aconitum contortum|Aconitum fauriei|Aconitum flavum|Aconitum forrestii|Aconitum leucostomum|Aconitum nevadense|Aconitum palmatum|Aconitum subcuneatum|Aconitum tianschanicum|Aconitum zuccarini|Acrisione denticulata|Acritopappus longifolius|Acrocomia sclerocarpa|Adenium obesum|Adenocarpus hispanicus|Adiantum lunulatum|Adina rubescens|Aegiceras corniculatum|Aesculus parviflora|Agardhiella tenera|Agaricus hortensis|Agaricus integer|Agaricus nebularis|Agaricus silvaticus|Agarum cribrosum|Agathis lanceolata|Agathosma scaberula|Agave americana|Agave huachucensis|Agelas dispar|Ageratina tomentella|Ageratum mexicanum|Aglaia elaeagnoidea|Aglaia elliptica|Agnorhiza reticulata|Agrostistachys hookeri|Ajuga australis|Ajuga bracteosa|Ajuga taiwanensis|Aka coralliphagum|Akebia quinata|Albatrellus caeruleoporus|Albizia schimperana|Alcea rosea|Alchornea cordifolia|Alcyonium utinomii|Aldisa sanguinea|Alectoria japonica|Alectoria rigida|Alexandrium excavatum|Alkanna cappadocica|Alkanna hirsutissima|Allium monspessulanum|Allium tuberosum|Allophylus laevigatus|Alnus cordata|Aloe deltoideodonta|Aloe indica|Aloe microstigma|Alpinia blepharocalyx|Alpinia flabellata|Alpinia oxyphylla|Alpinia zerumbet|Alseodaphne corneri|Alsidium corallinum|Alstonia angustiloba|Alstonia spathulata|Alstonia spectabilis|Alstonia undulifolia|Alternaria bataticola|Amanita pseudoporphyria|Amathia pinnata|Amelanchier vulgaris|Amietophrynus regularis|Amomum daniellii|Amomum villosum|Amsinckia menziesii|Amycolatopsis sulphurea|Anacystis montana|Anaptychia heterochroa|Anaptychia obscura|Anarsia lineatella|Anemone flaccida|Angelica decursiva|Angelica japonica|Angiopteris caudatiformis|Anguilla japonica|Aniba rosaeodora|Anisodus tanguticus|Anisomeles indica|Anisopappus pinnatifidus|Annona cherimola|Annona cherimolia|Annona cornifolia|Annona impressivenia|Annona muricata|Anomospermum grandifolium|Anthotroche myoporoides|Aonidiella aurantii|Aplidium multiplicatum|Aplidium orthium|Aplysia vaccaria|Aplysilla rosea|Aplysina archeri|Aplysina laevis|Aplysinella rhax|Apollonias barbujana|Apterostigma dentigerum|Aquilegia ecalcarata|Aquilegia viridiflora|Araiostegiella perdurans|Aralidium pinnatifidum|Arbacia pustulosa|Arbutus menziesii|Archidendron ellipticum|Arctium lappa|Ardisia neriifolia|Arenaria oreophila|Ariocarpus fissuratus|Aristea ecklonii|Aristolochia elegans|Aristolochia kaempferi|Arnebia decumbens|Arnica parryi|Arnica viscosa|Artabotrys uncinatus|Artabotrys zeylanicus|Artemisia annua L.|Artemisia anomala|Artemisia apiacea|Artemisia arbuscula|Artemisia assoana|Artemisia dentata|Artemisia hanseniana|Artemisia pectinata|Artemisia pedemontana|Artemisia rutifolia|Artemisia schischkinii|Artemisia taurica|Arthrobacter viscosus|Asclepias syriaca|Asparagus cochinchinensis|Aspergillus candidus|Aspergillus carneus|Aspergillus microcysticus|Aspergillus striatus|Aspergillus unguis|Asperula tinctoria|Aspidosperma subincanum|Aspilia parvifolia|Aster ageratoides|Aster alpinus|Aster koraiensis|Asterias glacialis|Asteriscus aquaticus|Asterococcus muratae|Asterospicularia laurae|Astilbe myriantha|Astragalus adsurgens|Astragalus armatus|Astragalus bicuspis|Astragalus flexus|Astragalus gummifer|Astragalus kabadianus|Astragalus membranaceus|Astragalus mongholicus|Astragalus sempervirens|Astropecten latespinosus|Atalantia racemosa|Atalantia wightii|Athanasia crithmifolia|Athanasia dregeana|Aulacocephalus temmincki|Auricularia auricula-judae|Austrobaileya scandens|Avrainvillea nigricans|Axinella weltneri|Axinyssa tethyoides|Baccharis dracunculifolia|Baccharis grandicapitulata|Baccharis solieri|Baccharis truncata|Bacillus litoralis|Backhousia angustifolia|Bacterial strain|Balanophora harlandii|Balanophora japonica|Balanops australiana|Balanus glandula|Baphia bancoensis|Baptisia lecontii|Barringtonia acutangula|Basanacantha spinosa|Bassia scoparia|Bauhinia purpurea|Beauveria felina|Beesia calthifolia|Benincasa hispida|Benkara malabarica|Benzoin praecox|Berberis crataegina|Berberis julianae|Berberis orthobotrys|Berkheya radula|Berkheya rhapontica|Bersama swinnyi|Bersama yangambiensis|Betula platyphylla|Biancaea sappan|Bidens tripartita|Bipolaris sacchari|Bishovia boliviensis|Blainvillea latifolia|Blastochloris viridis|Blighia welwitschii|Blumea eriantha|Blumea mollis|Boehmeria pannosa|Boletinus paluster|Bombus terrestris|Borassus flabellifer|Boschniakia rossica|Botrychium ternatum|Brackenridgea nitida|Brassica rapa subsp. oleifera|Brenneria rubrifaciens|Breynia fruticosa|Bridelia ferruginea|Brombya platynema|Bruguiera gymnorhiza|Bryonopsis laciniosa|Buchenavia tetraphylla|Buddleja cordata|Buddleja variabilis|Bufotes viridis|Bulbinella floribunda|Buphane fischeri|Bursera kerberi|Buxus hildebrandtii|Buxus rolfei|Bystropogon origanifolius|Cacalia robusta|Caiman crocodilus|Calamus insignis|Calcarisporium thermophilum|Calceolaria thyrsiflora|Calea cuneifolia|Calea megacephala|Calea pilosa|Callerya cinerea|Callicarpa acuminata|Callicarpa macrophylla|Callistemon coccineus|Callitris drummondii|Callophycus serratus|Callyspongia spinosissima|Calocedrus macrolepis|Calonectria lauri|Calophyllum lanigerum|Calophyllum thwaitesii|Calostephane divaricata|Calvatia lilacina|Calycotome villosa|Camellia oleifera|Campylopus clavatus|Canarium muelleri|Capparis ovata|Capparis spinosa|Capsicum baccatum|Capuronianthus mahafalensis|Caragana aurantiaca|Caralluma stalagmifera|Cardamine pinnata|Cardiospermum halicacabum|Cardiospermum hirsutum|Carissa spinarum|Carlina acanthifolia|Carpesium faberi|Carthamus tinctorius|Caryocar villosum|Casimiroa tetrameria|Cassia alata|Cassia javanica|Cassine papillosa|Castanea dentata|Castanopsis sclerophylla|Catalpa ovata|Catananche caerulea|Caulis millettiae|Caulis sargentodoxae|Caulis spatholobi|Ceanothus velutinus|Celastrus dispermus|Centaurea aemulans|Centaurea arbutifolia|Centaurea benedicta|Centaurea horrida|Centaurea musimomum|Centaurea nigrescens|Centaurea omphalotricha|Centella asiatica|Cephalaria procera|Cephalotaxus hainanensis|Ceramium botryocarpum|Cerbera dilatata|Cerbera odollam|Cereus chrysacanthus|Ceriops decandra|Chaenomeles sinensis|Chaenomeles speciosa|Chaetomium arcuatum|Chamaecyparis pisifera|Charpentiera obovata|Cheilanthes marantae|Cheilanthes mysurensis|Chelonaplysilla violacea|Chiton tuberculatus|Chlamydomonas allensworthii|Chlamydomonas reinhardtii|Chloranthus fortunei|Chlorophora regia|Chlorophytum borivilianum|Chondria californica|Choriaster granulatus|Chromodoris obsoleta|Chrozophora prostrata|Chrysanthemum indicum|Chuquiraga erinacea|Cichorium endivia|Cichorium glandulosum|Cichorium intybus|Cineraria geifolia|Cinnamomum subavenium|Cinnamomum tenuifolium|Cinnamosma madagascariensis|Cipadessa fruticosa|Circinotrichum falcatisporum|Cirsium carolinianum|Cirsium japonicum|Cirsium wallichii|Cissus quinquefolia|Cissus tricuspidata|Cistanche deserticola|Citrus hystrix|Citrus paradisi|Citrus reshni|Citrus wilsonii|Cladiella krempfi|Cladonia impexa|Cladonia pityrea|Cladosporium cucumerinum|Cladrastis kentukea|Clarkia unguiculata|Clathria prolifera|Clausena dunniana|Clausena euchrestifolia|Claviceps microcephala|Clematis chinensis|Clematis hexapetala|Clematis manshurica|Clematis terniflora var. mandshurica|Cleome brachycarpa|Clerodendrum cyrtophyllum|Clerodendrum trichotomum|Clinacanthus nutans|Clinopodium gracile|Clinostemon mahuba|Cneorum pulverulentum|Coccinella transversoguttata|Codium dwarkense|Codonocarpus australis|Codonopsis cordifolioidea|Coelogyne flavida|Coeloseira pacifica|Coffea liberica var. dewevrei|Colchicum speciosum|Colladonia triquetra|Conger myriaster|Conocephalum japonicum|Conus pulicarius|Conyza canadensis|Coptis trifolia subsp. groenlandica|Cordylanthus kingii|Cordyline indivisa|Coreopsis fasciculata|Coronophora gregaria|Cortinarius odoratus|Cortinarius vinosipes|Cortinarius viola|Cortinarius violaceus|Corydalis calliantha|Corydalis conspersa|Corydalis cornuta|Corydalis densiflora|Corydalis persica|Corydalis sewerzowi|Corynanthe pachyceras|Corynascus setosus|Costasiella ocellifera|Cota tinctoria|Cotinus coggygria|Cotyledon secunda|Craibiodendron yunnanense|Crambe crambe|Crambe tatarica|Crataegus pinnatifida|Crataegus pontica|Crateva nurvala|Cratoxylum cochinchinense|Cremastra appendiculata|Crematogaster africana|Creosphaeria sassafras|Crepis foetida|Crinipellis scabella|Crinum asiaticum|Crinum defixum|Crinum latifolium|Crinum stuhlmannii|Crotalaria mitchellii|Crotalaria stolzii|Croton cumingii|Croton geayi|Croton montevidensis|Cryptocarya aschersoniana|Cryptolestes pusillus|Cryptosporium pinicola|Cucurbita moschata|Cunninghamia lanceolata var. konishii|Cuphea carthagenensis|Cuphea hyssopifolia|Curcuma aeruginosa|Cybister confusus|Cylas formicarius|Cymbastela coralliophila|Cynanchum aphyllum|Cynanchum viminale|Cynoctonum wilfordii|Cynoglossum amabile|Cyperus pilosus|Cyperus rotundus|Cystophora scalaris|Cystoseira mediterranea|Cytisus ciliatus|Dacrycarpus imbricatus|Dacrydium biforme|Dactynotus ambrosiae|Daemonorops draco|Dahlstedtia pentaphylla|Dahlstedtia pinnata|Dalbergia congestiflora|Dalbergia ecastaphyllum|Dalbergia nitidula|Daldinia concentrica|Daphne arisanensis|Daphne papyracea|Daphniphyllum subverticillatum|Datisca glomerata|Delisea elegans|Delphinium campylocentrum|Delphinium cashmerianum|Delphinium giraldii|Delphinium winklerianum|Dendrilla membranosa|Dendrobium candidum|Dendrobium chrysanthum|Dendrobium chrysotoxum|Dendrobium fimbriatum|Dendrobium loddigesii|Dendrobium nobile|Dendrodoris krebsii|Dendronephthya gigantea|Dermocybe cardinalis|Dermocybe semisanguinea|Descurainia sophia|Desmodium canadense|Diaphus coeruleus|Diaphus suborbitalis|Diaporthe helianthi|Dichomitus squalens|Dictamnus dasycarpus|Didemnum inarmatum|Dimelaena oreina|Dimorphocarpa wislizeni|Dioscorea gracillima|Dioscorea nipponica Makino subsp. rosthornii (Prain et Burkill) C. T. Ting|Dioscorea olfersiana|Dioscorea villosa|Dioscoreophyllum cumminsii|Diospyros eriantha|Diospyros maritima|Diospyros verrucosa|Dipentodon sinicus|Diplazium esculentum|Dipterocarpus dyeri|Disepalum plagioneurum|Disporopsis aspera|Disynaphia halimifolia|Dodonaea viscosa|Domohinea perrieri|Doodia picta|Doris montereyensis|Dorstenia lindeniana|Dracaena concinna|Dracaena mannii|Dracaena ombet|Dracocephalum moldavica|Drechslera avenae|Drimys winteri|Dryadodaphne novoguineensis|Drymaria cordata|Dryocosmus kuriphilus|Drypetes paxii|Drypetes roxburghii|Drypetes tessmanniana|Duddingtonia flagrans|Dumortiera hirsuta|Dysoxylum lenticellare|Dytiscus marginalis|Ecballium elaterium|Echinacea simulata|Echinochloa crus-galli|Echinoclathria subhispida|Echinocystis lobata|Echinus microtuberculatus|Echiochilon pauciflorum|Echium rubrum|Ecklonia arborea|Egregia menziesii|Eichhornia crassipes|Elaeagnus pungens|Elaphoglossum lindbergii|Eleutherobia albiflora|Elmerrillia papuana|Embelia ribes|Emericellopsis minima|Entada africana|Entada polystachya|Eragrostis viscosa|Eremocarpus setiger|Eremophila serrulata|Eremostachys moluccelloides|Eremurus chinensis|Eria elegans|Eria marginata|Eria rigida|Erinus alpinus|Eriophyllum confertiflorum|Eriosema chinense|Eriostemon rhomboideus|Erium villosum|Erylus nobilis|Erythrina vogelii|Eschenbachia blinii|Escontria chiotilla|Eskemukerjea megacarpum|Ethulia conyzoides|Eucalyptus|Eucalyptus albens|Eucalyptus camaldulensis|Eucalyptus camaldulensis var. pendula|Eucalyptus citriodora|Eucalyptus globulus|Eucalyptus jenseni|Eucalyptus kitsoni|Eucalyptus melliodora|Eucalyptus robusta|Eucalyptus rubida|Eucryphia cordifolia|Eugenia hyemalis|Eunicella cavolinii|Euodia bodinieri|Euodia officinalis|Euodia ruticarpa|Euonymus alatus|Euonymus fortunei|Euonymus laxiflorus|Euonymus nanoides|Euonymus tingens|Eupatorium argentinum|Euphausia superba|Euphorbia biglandulosa|Euphorbia cornigera|Euphorbia esula|Euphorbia formosana|Euphorbia hirta|Euphorbia palustris|Euphorbia pithyusa|Euphorbia resinifera|Euphorbia segetalis|Euphorbia tirucalli|Euphorbia wallichii|Euploca racemosa|Eurya japonica|Eurycoma longifolia|Euthamia graminifolia|Evodia rutaecarpa|Excoecaria acerifolia|Eysenhardtia platycarpa|Fagara naranjillo|Fagopyrum cymosum|Fagus fusca|Fallopia multiflora|Farfugium japonicum|Felicia amelloides|Ferula ammoniacum|Ferula gummosa|Ferula gumosa|Fibraurea recisa|Ficus microcarpa|Ficus mucuso|Ficus nervosa|Ficus racemosa|Flemingia macrophylla|Flemingia philippinensis|Folium digitalis|Folium viticis negundo|Formica fusca|Forsteronia refracta|Fouquieria diguetii|Fragaria vesca|Fridericia chica|Fritillaria cirrhosa|Fritillaria hupehensis|Fritillaria ningguoensis|Fritillaria taipaiensis|Fructus choerospondiatis|Fructus gardeniae grandiflorae|Fructus gardeniae preparata|Fructus mori|Fructus xanthii sibirici|Fuligo candida|Fulmarus glacialis|Fumaria indica|Fumaria kraliki|Fusarium avenaceum|Fusarium dimerum|Fusarium sacchari|Gaertnera morindoides|Galdieria sulphuraria|Ganoderma lucidum|Garcia parviflora|Garcinia hombroniana|Garcinia latissima|Garcinia scortechinii|Gardenia gordoni|Gardenia tubifera|Garrya laurifolia|Gasterosteus aculeatus|Gastrodia elata|Geigeria schinzii|Genista sessilifolia|Gentiana bellidifolia|Gentiana crassicaulis|Gentiana dahurica|Gentiana macrophylla|Gentiana straminea|Geranium macrorrhizum|Glochidion philippicum|Gloiosiphonia verticillaris|Glycosmis pseudoracemosa|Glycosmis puberula|Gnetum latifolium|Goldfussia yunnanensis|Gomphostemma parviflorum|Gonepteryx rhamni|Goniothalamus malayanus|Goniothalamus undulatus|Goupia glabra|Gratiola officinalis|Gremmeniella abietina|Grevillea robusta|Grewia mollis|Grindelia discoidea|Grindelia nana|Guadua angustifolia|Guarea trichilioides|Guatteria boliviana|Guettarda eximia|Guettarda noumeana|Gutierrezia dracunculoides|Gymnocarpium robertianum|Gymnopus confluens|Gynochthodes parvifolia|Gynoxys verrucosa|Gypothamnium pinifolium|Gypsophila oldhamiana|Gyrostroma missouriense|Haemanthus toxicarius|Hakea saligna|Halichondria okadai|Haliclona tubifera|Halocarpus biformis|Halopitys incurvus|Haloxylon salicornicum|Hansenia weberbaueriana|Haplocarpha scaposa|Hedera nepalensis|Hedychium coronarium|Hedysarum connatum|Hedysarum gmelini|Hedysarum polybotrys|Helenium integrifolium|Helenium quadridentatum|Helenium virginicum|Helichrysum angustifolium|Helichrysum auriceps|Helichrysum davenportii|Helichrysum dendroideum|Helichrysum nudifolium|Helichrysum sutherlandii|Heliconius cydno|Heliomeris multiflora|Heliotropium digynum|Heliotropium floridum|Helipterum gnaphaloides|Helipterum propinquum|Helipterum roseum|Hemiselmis virescens|Hendersonula toruloidea|Herba patriniae|Herba selaginellae doederleinii|Heterocapsa triquetra|Heteropsis integerrima|Heterosigma akashiwo|Heterotheca grandiflora|Heuchera cylindrica|Hexabranchus sanguineus|Hexagonia speciosa|Hibiscus schizopetalus|Himalaiella deltoidea|Hippasteria phrygiana|Hippobroma longiflora|Hippocratea excelsa|Hoffmannia strigillosa|Holarrhena floribunda|Holothuria atra|Holothuria squamifera|Homalium longifolium|Hovenia acerba|Hubertia tomentosa|Humulus lupulus|Hydrocotyle ranunculoides|Hyella caespitosa|Hygrocybe punicea|Hygrophorus eburneus|Hylocomium splendens|Hylotrupes bajulus|Hymenoxys microcephala|Hyoscyamus pusillus|Hypericum caprifoliatum|Hypericum japonicum|Hypericum laricifolium|Hypericum oblongifolium|Hypericum reptans|Hypogymnia vittata|Hypolaena fastigiata|Hypolepis punctata|Hypotrachyna quaesita|Hypoxis nyasica|Hypselodoris porterae|Hyptis brevipes|Ibacus peronii|Iberis sempervirens|Idea leuconoe|Ilex brevicuspis|Inula cappa|Inula grantioides|Inula racemosa|Io fluvialis|Iochroma australe|Iotrochota purpurea|Ipomoea cairica|Ipomoea digitata|Ipomoea purpurea|Iridaea membranacea|Iryanthera polyneura|Isatis tinctoria|Isoberlinia angolensis|Isodon amethystoides|Isodon japonica var. glaucocalyx|Isodon lophanthoides|Isodon pharicus|Jaborosa leucotricha|Jacobaea subalpina|Jasminum grandiflorum|Juglans nigra|Juniperus ashei|Juniperus brevifolia|Juniperus formosana|Juniperus horizontalis|Juniperus rigida|Juniperus rigida var. conferta|Juniperus scopulorum|Justicia adhatoda|Justicia betonica|Justicia trinervia|Kadsura heteroclita|Kaempferia marginata|Kalanchoe blossfeldiana|Kalanchoe spathulata|Kaunia saltensis|Khaya grandifoliola|Khaya senegalensis|Kiggelaria africana|Kniphofia foliosa|Kokoona reflexa|Koompassia malaccensis|Kopsia grandifolia|Lactarius atroviridis|Lactarius pubescens|Lactarius sanguifluus|Lactobacillus casei|Lactococcus lactis|Laetiporus versisporus|Laggera alata|Lambertella corni|Lanaria lanata|Lantana camara|Lasianthaea podocephala|Lasianthus fordii|Lasiosiphon kraussianus|Lastrea thelypteris|Lathyrus latifolius|Lathyrus rotundifolius|Lathyrus tingitanus|Laurencia saitoi|Laurencia spectabilis|Laurencia tristicha|Laurentia longiflora|Leathesia nana|Lebeckia plukenetiana|Lecanora lividocinerea|Lecidella chodati|Ledebouria socialis|Leitneria floridana|Lemaireocereus griseus|Leontice kiangnanensis|Lepidiota negatoria|Lepidium apetalum|Lepidorhinus squamosus|Lepisorus ussuriensis|Lepista irina|Lepraria citrina|Leptothorax acervorum|Lespedeza thunbergii subsp. formosa|Leucanthemum maximum|Leucocarpus perfoliatus|Leucoptera malifoliella|Ligularia dentata|Ligusticum jeholense|Ligusticum sinense|Ligusticum tenuissimum|Ligustrum obtusifolium|Ligustrum ovalifolium|Lilium brownii|Lilium lancifolium|Lilium pumilum|Limnodynastes interioris|Liparis keitaoensis|Liparis nakaharai|Lippia adoensis|Liquidambar formosana|Liriope muscari|Lissoclinum japonicum|Litchi chinensis|Lithothamnion corallioides|Littorina littorea|Lobelia chinensis|Lobophora variegata|Lobophytum cristatum|Lobophytum denticulatum|Lonchocarpus costaricensis|Lonchocarpus urucu|Lonicera japonica|Lophiostoma vaginatispora|Lophocereus marginatus|Lotus ucrainicus|Lucilia caesar|Lupinus cosentinii|Lupinus luteus|Lycium barbarum|Lycium chinense|Lycopodium japonicum|Lycopodium paniculatum|Lycopus europaeus|Lygodium pinnatifidum|Lysimachia mauritiana|Mabea fistulifera|Macaranga sinensis|Machaerium kuhlmannii|Maclura aurantiaca|Macrolepiota neomastoidea|Maesa ramentacea|Magnolia obovata|Mamestra brassicae|Mangifera indica|Manihot esculenta|Mannia fragrans|Marchantia polymorpha|Marrubium anisodon|Massa hanshi fermentata|Maytenus buxifolia|Maytenus hookeri|Medinilla magnifica|Medium grandiflorum|Melaleuca decora|Melaleuca uncinata|Melampodium leucanthum|Melanophryniscus moreirae|Melia azedarach|Melia toosendan|Melicope micrococca|Melissa officinalis|Melolontha melolontha|Mentha arvensis|Mentha canadensis|Mentha pulegiformis|Meryta denhamii|Mespilus germanica|Mesua beccariana|Mesua ferrea|Metanarthecium luteoviride|Methanosarcina barkeri|Methylosinus trichosporium|Metridium senile|Micrococcus luteus|Microlepia marginata|Micromonospora echinospora|Microsorum punctatum|Mikania luetzelburgii|Mikania oblongifolia|Millettia erythrocalyx|Millettia laurentii|Millettia pinnata|Mimosa invisa|Mirabilis jalapa|Modiolus demissus|Mollinedia costaricensis|Mollugo cerviana|Monanchora unguiculata|Monascus purpureus|Monochaetum vulcanicum|Monodora tenuifolia|Monomeria barbata|Monopteryx uaucu|Morella pensylvanica|Morinda citrifolia|Morinda morindoides|Moringa oleifera|Mortierella elongata|Morus alba|Morus mongolica|Mucuna urens|Murdannia triquetra|Mussaenda parviflora|Mycobacterium leprae|Mycobacterium tuberculosis|Myelobia smerintha|Myoporum platycarpum|Myrica arborea|Myristica argentea|Myristica cagayanensis|Myristica otoba|Myrtopsis sellingii|Mytilus galloprovincialis|Nannoglottis ravida|Napoleonaea vogelii|Narcissus concolor|Nasutitermes ephratae|Nauclea officinalis|Naucleopsis ternstroemiiflora|Negombata magnifica|Nelumbo nucifera|Nemuaron humboldtii|Neoboutonia glabrescens|Neolentinus lepideus|Neolitsea acuminatissima|Neolitsea pulchella|Neolitsea villosa|Neophaeosphaeria quadriseptata|Nepeta multifida|Nephroma australe|Nephroma cellulosum|Nephthea armata|Nigella aristata|Nipaecoccus aurilanatus|Nonomuraea dietziae|Nothapodytes pittosporoides|Notholaena aschenborniana|Notholaena lemmonii|Nototodarus sloanii|Ocimum gratissimum|Ocimum tenuiflorum|Oleum viticis negundo|Oncoba echinata|Ongokea gore|Onobrychis bobrovii|Ononis vaginalis|Ononis viscosa|Onoseris alata|Ophidiaster ophidianus|Ophiocordyceps heteropoda|Ophiolepis superba|Ophiopogon japonicus|Ophiorrhiza kuroiwae|Ophryosporus charua|Ormosia dasycarpa|Orobanche coerulescens|Orobanche pycnostachya|Oroxylum indicum|Oscillatoria princeps|Osmanthus heterophyllus|Osmundaria colensoi|Otanthus maritimus|Otostegia fruticosa|Ozoroa insignis|Pachycereus pringlei|Pachygone dasycarpa|Paeonia suffruticosa|Palaquium canaliculatum|Panax ginseng|Panax innovans|Panax japonicus var. major (burk.) wu et feng|Panax papyrifer|Papaver persicum|Papaver pseudocanescens|Papaver radicatum|Papaver somniferum|Papilio phorcas|Parabenzoin trilobum|Paracoccus denitrificans|Parameria laevigata|Paramignya griffithii|Paramyrothecium roridum|Paranephelius uniflorus|Parastrephia lepidophylla|Pardachirus pavoninus|Parectatosoma mocquerysi|Parkia javanica|Parmelia pokornyi|Parmelia tinctina|Parnassius phoebus|Parthenium bipinnatifidum|Pastinaca sativa|Paullinia pinnata|Pecten irradians|Pedicularis densispica|Pedicularis rex|Pelea madagascarica|Pellacalyx axillaris|Peltostigma guatemalense|Penianthus zenkeri|Penicillium abidjanum|Penicillium alutaceum|Penicillium cinerascens|Penicillium decumbens|Penicillium janczewskii|Penicillium olsonii|Penstemon secundiflorus|Pentaceraster alveolatus|Pericome caudata|Periconia atropurpurea|Perilla frutescens|Periploca forrestii|Peritassa compta|Perovskia abrotanoides|Persea indica|Persea mexicana|Persicaria lapathifolia|Persicaria tinctoria|Perymenium jelskii|Pestalotiopsis oenotherae|Petalostemon purpureum|Petasites japonicus|Petrorhagia dubia|Petrosia corticata|Petrosia hebes|Petrosia similis|Petteria ramentacea|Petunia nyctaginiflora|Peucedanum oroselinum|Peucedanum praeruptorum|Peyrousea umbellata|Pharbitis nil|Phascolosoma elongatum|Phebalium dentatum|Phebalium whitei|Phedimus kamtschaticus|Phegopteris bukoensis|Phellinus tremulae|Phenax angustifolius|Phlegmariurus tetrastichus|Phlogacanthus thyrsiflorus|Phlojodicarpus sibiricus|Phlomis crinita|Phlomis nissolii|Phlomis umbrosa|Phlomoides hamosa|Phlomoides medicinalis|Phoebe pittieri|Phora affinis|Phormia regina|Phyllanthus oligospermus|Phyllidia ocellata|Phyllobates bicolor|Phyllospongia lamellosa|Physalis sordida|Physocarpus intermedius|Phytolacca acinosa|Picris radicata|Pilocarpus spicatus|Pinellia ternata|Pinguicula moranensis|Pinus edulis|Pinus glauca|Pinus picea|Pinus strobus|Pinus sylvestris|Piper acutifolium|Piper aequale|Piper arboreum|Piper brachystachyum|Piper lanceifolium|Piper marginatum|Piper nigrum|Piper puberulum|Piper sanctum|Piptadenia colubrina|Piptanthus nanus|Pistacia atlantica|Pithecellobium racemosum|Pittosporum brevicalyx|Pittosporum undulatum|Plakinastrella clathrata|Platycarpha glomerata|Plectosphaerella cucumerina|Plectranthus caninus|Plectranthus nummularius|Plectranthus purpuratus|Pleione bulbocodioides|Pleione yunnanensis|Pleogyne cunninghami|Pleogyne cunninghamii|Pleurotus ostreatus|Pluchea lanceolata|Pluchea odorata|Pluchea suaveolens|Podocarpus amarus|Podocarpus blumei|Podocarpus montanus|Podolepis longipedata|Podospora curvicolla|Pogostemon cablin|Polemonium caeruleum|Polyalthia nemoralis|Polycephalomyces nipponicus|Polygala amara|Polygala aureocauda|Polygala sibirica|Polygala tenuifolia|Polygonum flaccidum|Polyphaga sinensis|Polypodium hastatum|Polypodium vulgare|Polyporus confluens|Polytolypa hystricis|Ponera metallica|Populus alba|Populus angustifolia|Portulaca oleracea|Posidonia oceanica|Postia guttulata|Potamogeton malaianus|Potebniamyces gallicola|Potentilla candicans|Pouzolzia occidentalis|Premna odorata|Primula hirsuta|Primula integrifolia|Prorocentrum micans|Prosopis kuntzei|Prosopis spicigera|Prunella vulgaris|Prunus lusitanica|Prunus mahaleb|Prunus persica|Psammosilene tunicoides|Pseudallescheria boydii|Pseudoalteromonas luteoviolacea|Pseudocyphellaria aurata|Pseudocyphellaria australiensis|Pseudocyphellaria coronata|Pseudocyphellaria hirsuta|Pseudomonas chlororaphis|Pseudomonas syringae|Pseudoplexaura flagellosa|Pseudostellaria heterophylla|Pseudowintera colorata|Pseudoxandra sclerocarpa|Pseuduvaria indochinensis|Psiadia dentata|Psidium acutangulum|Psidium guajava|Psilotum nudum|Pteridium aquilinum|Pteris inaequalis|Pteris multifida|Pteris semipinnata|Pteris setuloso-costulata|Pteris spinulosa|Pterocarpus erinaceus|Pterocarpus indicus|Pteryxia terebinthina|Ptilota pectinata|Punica granatum|Purpura aperta|Pyrobaculum organotrophum|Pyrola decorata|Pyrus bourgaeana|Quercus imbricaria|Quercus serrata|Rabdosia excisa|Rabdosia macrophylla|Rabdosia ternifolia|Radermachera xylocarpa|Radix kadsurae coccineae|Radix rosae laevigatae|Ramalina pollinaria|Ramariopsis helvola|Ramuius wallichii seu puberulii|Randia longispina|Ranunculus acris|Ranunculus bulbosus|Ranunculus laetus|Rapanea lancifolia|Rapanea neurophylla|Rauvolfia salicifolia|Rauvolfia vomitoria|Renealmia alpinia|Renilla muelleri|Rhamnus cathartica|Rhamnus formosana|Rheedia acuminata|Rheum coreanum|Rheum officinale|Rheum palmatum|Rheum tanguticum|Rhinella arenarum|Rhinella icterica|Rhizoctonia repens|Rhizoma curcumae|Rhizophora tagal|Rhizoplaca baranowii|Rhizosolenia setigera|Rhodobacter sphaeroides|Rhododendron aureum|Rhododendron ferrugineum|Rhododendron maximum|Rhododendron micranthum|Rhododendron mucronulatum|Rhodoglossum japonicum|Roccellaria mollis|Rodgersia podophylla|Roemeria carica|Rogeria adenophylla|Rosa agrestis|Rosa laevigata|Rourea minor|Rubia wallichiana|Rubia yunnanensis|Rubrivivax gelatinosus|Rubus chingii|Rubus chroosepalus|Rubus coreanus|Rubus laciniatus|Rubus rosa|Rubus xanthocarpus|Rumex maritimus|Rumex nepalensis|Ruscus aculeatus|Russula sardonia|Russula vesca|Ruta microcarpa|Ruta pinnata|Sabina sargentii|Saccharothrix mutabilis|Saccharothrix mutabilis subsp. capreolus|Salacia lehmbachii|Salix sachalinensis|Salmonella enterica subsp. enterica serovar bovismorbificans|Salsola micranthera|Salvia broussonetii|Salvia dorrii|Salvia hispanica|Salvia horminum|Salvia lavandulifolia|Salvia miltiorrhiza|Salvia nubicola|Salvia syriaca|Salvia urolepis|Salvia yosgadensis|Samadera indica|Sandoricum koetjape|Sanicula epipactis|Sapium sebiferum|Saposhnikovia divaricata|Saraca asoca|Sarcococca hookeriana|Sarcophyton buitendijki|Sarcophyton flexuosum|Sarcopyramis nepalensis|Sargentodoxa cuneata|Sarracenia flava|Sasa paniculata|Sassafras officinalis|Saussurea cordifolia|Saussurea lappa|Saussurea salicifolia|Saxidomus giganteus|Scalesia baurii|Scapania nemorea|Schefflera divaricata|Schisandra arisanensis|Schizonepeta multifida|Schleichera trijuga|Schultesia guianensis|Schumanniophyton magnificum|Sclerodoris tanya|Scopolia atropoides|Scorzonera pseudodivaricata|Scrophularia buergeriana|Scrophularia koelzii|Scrophularia leucoclada|Scutellaria amoena|Scutellaria lateriflora|Scytonema ocellatum|Securigera securidaca|Sedum forsteri|Sedum sarmentosum|Selaginella labordei|Selaginella tamariscina|Selinum carvifolium|Selinum libanotis|Selinum papyraceum|Senecio cathcartensis|Senecio congestus|Senecio heliopsis|Senecio macrophyllus|Senecio polyodon|Senecio rupestris|Senecio ruwenzoriensis|Senecio scandens|Senecio sinuatus|Senecio zoellneri|Senna didymobotrya|Senna sophera|Septoria pistaciarum|Sequoia sempervirens|Setosphaeria turcica|Shigella flexneri|Shorea seminis|Sidastrum acuminatum|Sideritis brevibracteata|Sideritis condensata|Sideritis dasygnaphala|Sideritis grandiflora|Sideroxylon cubense|Sigillina signifera|Silene linicola|Sindora wallichii|Sinopodophyllum hexandrum|Sinularia depressa|Sinularia firma|Sinularia inelegans|Sinularia leptoclados|Sipunculus nudus|Smenospongia echina|Smilax china|Smilax glabra|Solanderia secunda|Solanum americanum|Solanum andigena|Solanum chacoense|Solanum diflorum|Solanum euacanthum|Solanum laxum|Solanum olgae|Solanum virginianum|Solidago petiolaris|Sonneratia alba|Sophora alopecuroides|Sophora angustifolia|Sophora japonica|Sophora secundiflora|Sophora viciifolia|Sorbus torminalis|Sordaria araneosa|Sparganium stoloniferum|Spatholobus suberectus|Sphaerella rubella|Spilanthes acmella|Spiracantha cornifolia|Spiraea formosana|Spirographis spallanzani|Spongionella gracilis|Staehelina fruticosa|Stellaria dichotoma|Stellaria media|Stemodia maritima|Stenocarpella maydis|Stenocereus thurberi|Stenochlaena palustris|Stenolobium stans|Stenostomum acutatum|Stephania sasakii|Stephania sutchuenensis|Stephanitis rhododendri|Stereocaulon leprocauloides|Stevia connata|Stevia polycephala|Stichopus chloronotus|Stichopus horrens|Stiretrus anchorago|Streptomyces atratus|Streptomyces aurantiacus|Streptomyces avermectinius|Streptomyces caelestis|Streptomyces corchorusii|Streptomyces fradiae|Streptomyces fumanus|Streptomyces gannmycicus|Streptomyces lavendofoliae|Streptomyces lomondensis|Streptomyces luteosporeus|Streptomyces melanogenes|Streptomyces misawanensis|Streptomyces naraensis|Streptomyces odorifer|Streptomyces parvisporogenes|Streptomyces platensis|Streptomyces prunicolor|Streptomyces pseudovenezuelae|Streptomyces purpurogeneiscleroticus|Streptomyces ramocissimus|Streptomyces roseoverticillatus|Strongylodesma algoaensis|Strophanthus sarmentosus var. senegambiae|Strychnos amazonica|Strychnos cathayensis|Strychnos elaeocarpa|Strychnos floribunda|Strychnos ledermannii|Strychnos ligustrina|Strychnos spinosa|Strychnos wallichiana|Stypandra imbricata|Styrax agrestis|Styrax japonicus|Suaeda maritima|Subergorgia hicksoni|Swertia franchetiana|Swertia hickinii|Swertia japonica|Symphyocladia latiuscula|Syncarpia hillii|Syncolostemon parviflorus|Syphonota geographica|Tabernaemontana divaricata|Tachardia acaciae|Tadorna ferruginea|Tanacetum balsamitoides|Tanacetum nubigenum|Taonia australasica|Tasmannia lanceolata|Taxus drupacea|Taxus wallichiana|Tecoma heptaphylla|Tephroseris integrifolia|Tephroseris kirilowii|Tephrosia bracteolata|Tephrosia odorata|Tephrosia pumila|Tephrosia viridiflora|Tephrosia vogelii|Tetradium glabrifolium|Tetraneuris acaulis|Teucrium depressum|Teucrium marum|Teucrium orientale|Thalysias juniperina|Thaminophyllum multiflorum|Thelephora aurantiotincta|Thermopsis mollis|Thioalkalivibrio versutus|Thiocystis gelatinosa|Thuja plicata|Thymus piperella|Tithonia rotundifolia|Tolypocladium album|Tolypothrix tjipanasensis|Torreya grandis|Torreya nuncifera|Trachyrhamphus serratus|Trapa bicornis|Trichia carnea|Trichilia havanensis|Trichilia rubescens|Trichocolea tomentella|Trichoderma citrinum|Tricholoma batschii|Trichosurus vulpecula|Triclisia subcordata|Trifolium hybridum|Trifolium strepens|Triglochin maritima|Trikentrion flabelliforme|Tripterospermum lanceolatum|Triunia erythrocarpa|Tsitsikamma favus|Tulipa silvestris|Turbo argyrostoma|Turraea nilotica|Tylophora tanakae|Ulva prolifera|Umbilicaria cinereorufescens|Uncaria africana|Uncaria macrophylla|Uncaria rhynchophylla|Uncaria sinensis|Ungernia victoris|Unonopsis glaucopetala|Urtica triangularis|Usnea canariensis|Usnea japonica|Uvaria kirkii|Uvaria lucida|Vaccinium oxycoccos|Vachellia leucophloea|Vallaris heynei|Vallaris solanacea|Vellozia streptophylla|Veltheimia viridifolia|Verbascum spinosum|Verbena officinalis|Veronica kellereri|Veronica liwanensis|Viburnum betulifolium|Viburnum davidii|Viburnum furcatum|Vicia benghalensis|Vigna angularis|Viguiera decurrens|Viguiera incana|Viguiera pinnatilobata|Vincetoxicum hirundinaria|Viola odorata|Virola oleifera|Viscum coloratum|Vitex limonifolia|Vitex negundo|Vitex rotundifolia|Vitex trifolia|Vitis betulifolia|Vitis ficifolia|Vitis silvestris|Vitis vinifera|Viviparus japonicus|Vladimiria muliensis|Walsura tubulata|Watersipora cucullata|Wikstroemia retusa|Woodwardia orientalis|Xanthium strumarium|Xanthoparmelia pokornyi|Xenoacremonium recifei|Xiphophora gladiata|Xylocarpus granatum|Xylopia aethiopica|Xylopia frutescens|Xyris indica|Zaluzania grayana|Zanthoxylum acutifolium|Zanthoxylum armatum|Zanthoxylum avicennae|Zanthoxylum liebmannianum|Zanthoxylum monophyllum|Zanthoxylum nitidum|Zanthoxylum tetraspermum|Zebrina pendula|Zeora sordida|Zephyranthes flava|Zieria smithii|Zygosaccharomyces rouxii|[clostridium] cellulolyticum|[polyangium] brachysporum|solanum violaceum

>  <collections>  (1) 
ANPDB|Australian natural products|BIOFACQUIM|CMAUP (cCollective molecular activities of useful plants)|ChEBI NPs|ChEMBL NPs|ChemSpider NPs|EMNPD|KNApSaCK|Latin America dataset|NANPDB (Natural Products from Northern African Sources)|NPACT|NPASS|NuBBEDB|Phyto4Health|Super Natural II|TCMDB-Taiwan (Traditional Chinese Medicine database)|TIPdb (database of Taiwan indigenous plants)|VietHerb|ZINC NP

>  <dois>  (1) 
10.1007/s11745-005-1388-y|10.1016/0031-9422(75)85386-6|10.1016/0031-9422(93)85192-t|10.1016/0031-9422(95)00093-3|10.1016/S0378-8741(01)00414-7|10.1016/j.bmcl.2010.01.096|10.1016/j.bmcl.2010.12.025|10.1016/j.bmcl.2017.03.095|10.1016/j.bse.2005.10.018|10.1016/j.jep.2015.08.039|10.1016/s0031-9422(98)00673-6|10.1016/s0031-9422(99)00338-6|10.1016/s0305-1978(03)00134-0|10.1021/np000496y|10.1021/np010222q|10.1021/np030531b|10.1021/np0495985|10.1021/np060284m|10.1021/np100440p|10.1021/np100487j|10.1021/np100531x|10.1021/np100566v|10.1021/np100851s|10.1021/np100896w|10.1021/np200051j|10.1021/np2000914|10.1021/np2002918|10.1021/np200646e|10.1021/np200877u|10.1021/np3007638|10.1021/np50057a037|10.1021/np900068t|10.1021/np9902340|10.1071/ch9750081|10.1080/14786410802214009|10.21608/bfsa.2006.65200

>  <synonyms>  (1) 
Sitogluside|474-58-8|Eleutheroside A|Alexandrin|Daucosterin|Coriandrinol|beta-Sitosterol glucoside|BSSG|Doursterol|Sitoglusidum|Sterolin|WA 184|beta-Daucosterol|EU-4906|Sitosteryl glycoside|AW 10|Sitosterol D-glucoside|NSC-165962|BSS-G|UNII-U45VN859W3|CHEBI:67554|AW-10|U45VN859W3|WA-184|Sitogluside (USAN\/INN)|3-beta-(beta-D-Glucopyranosyloxy)stigmast-5-ene|beta-sitosteryl-beta-D-glucopyranoside|.beta.-sitosterol-glucoside|(3beta)-stigmast-5-en-3-yl beta-D-glucopyranoside|BRN 4359450|CHEMBL506678|beta-Sitosterol beta-D-Glucoside|Sitosterol-3-O-beta-D-glucoside|.beta.-D-Glucopyranoside| (3.beta.)-stigmast-5-en-3-yl|D05848|(2R|3R|4S|5S|6R)-2-(3S|8S|9S|10R|13R|14S|17R)-17-(2R|5R)-5-ethyl-6-methylheptan-2-yl-10|13-dimethyl-2|3|4|7|8|9|11|12|14|15|16|17-dodecahydro-1H-cyclopentaaphenanthren-3-yloxy-6-(hydroxymethyl)oxane-3|4|5-triol|sitosterol glucuronide|AC1NX3NW|beta-sitosterol glucutonide|Sitogluside USAN:INN|Sitoglusidum INN-Latin|Sitoglusido INN-Spanish|beta-sitosterol-beta-D-glycoside|CID5742590|EU 4906|SITOGLUSIDE INN|O-glucosyl-beta-sitosterol|SITOGLUSIDE USAN|SureCN137210|Ambap474-58-8|C011015|SCHEMBL137210|sitosteryl 3-beta-D-glucoside|beta-SITOSTEROL-GLUCOSIDE|DTXSID301045674|HY-N0410|3-O-beta-D-glucosyl-beta-sitosterol|BDBM50257635|MFCD01683621|AKOS032962016|CS-5421|Eleutheroside A;-Sitosterol -D-glucoside|MS-30381|FT-0686600|NS00123835|.BETA.-SITOSTEROL-.BETA.-D-GLUCOSIDE|C20785|SITOSTEROL 3-O-.BETA.-D-GLUCOPYRANOSIDE|Q-100502|Stigmast-5-ene| 3-beta-(beta-D-glucopyranosyloxy)-|Q15410900|3.BETA.-(.BETA.-D-GLUCOPYRANOSYLOXY)STIGMAST-5-ENE|BETA-SITOSTEROL GLUCOSIDE (DAUCOSTEROL) (CONSTITUENT OF STINGING NETTLE)|beta-Sitosteryl-D-glucoside|sitosterol-3-O-beta-D-glucopyranoside|Sitosterol-3-O-\u221a\u00e9\u00ac\u2264-D-glucopyranoside| 3-\u221a\u00e9\u00ac\u2264-D-glucosylsitosterol| Daucosterol|daucosterol|_-sitosteryl glucoside|_-sitosterol 3-O-_-D-glucopyranoside

>  <cas>  (1) 
474-58-8

$$$$

     RDKit          2D

 19 21  0  0  0  0  0  0  0  0999 V2000
   -5.5059   -0.5977    0.0000 O   0  0  0  0  0  0  0  0  0  0  0  0
   -4.2279    0.1875    0.0000 C   0  0  0  0  0  0  0  0  0  0  0  0
   -4.2689    1.6870    0.0000 N   0  0  0  0  0  0  0  0  0  0  0  0
   -2.9909    2.4722    0.0000 C   0  0  0  0  0  0  0  0  0  0  0  0
   -1.6718    1.7581    0.0000 N   0  0  0  0  0  0  0  0  0  0  0  0
   -1.6308    0.2586    0.0000 C   0  0  0  0  0  0  0  0  0  0  0  0
   -2.9088   -0.5266    0.0000 C   0  0  0  0  0  0  0  0  0  0  0  0
   -2.5569   -1.9848    0.0000 N   0  0  0  0  0  0  0  0  0  0  0  0
   -1.0614   -2.1007    0.0000 C   0  0  0  0  0  0  0  0  0  0  0  0
   -0.4890   -0.7142    0.0000 N   0  0  0  0  0  0  0  0  0  0  0  0
    0.9691   -0.3623    0.0000 C   0  0  0  0  0  0  0  0  0  0  0  0
    1.5415    1.0242    0.0000 O   0  0  0  0  0  0  0  0  0  0  0  0
    3.0370    0.9083    0.0000 C   0  0  0  0  0  0  0  0  0  0  0  0
    4.0098    2.0500    0.0000 C   0  0  0  0  0  0  0  0  0  0  0  0
    5.4850    1.7784    0.0000 O   0  0  0  0  0  0  0  0  0  0  0  0
    3.3889   -0.5499    0.0000 C   0  0  0  0  0  0  0  0  0  0  0  0
    4.7754   -1.1223    0.0000 O   0  0  0  0  0  0  0  0  0  0  0  0
    2.1109   -1.3351    0.0000 C   0  0  0  0  0  0  0  0  0  0  0  0
    1.9949   -2.8307    0.0000 O   0  0  0  0  0  0  0  0  0  0  0  0
  1  2  2  0
  2  3  1  0
  3  4  1  0
  4  5  2  0
  5  6  1  0
  6  7  2  0
  7  8  1  0
  8  9  2  0
  9 10  1  0
 11 10  1  6
 11 12  1  0
 12 13  1  0
 13 14  1  6
 14 15  1  0
 13 16  1  0
 16 17  1  1
 16 18  1  0
 18 19  1  1
  7  2  1  0
 18 11  1  0
 10  6  1  0
M  END
>  <identifier>  (2) 
CNP0580705.2

>  <canonical_smiles>  (2) 
O=C1NC=NC2=C1N=CN2[C@@H]1O[C@H](CO)[C@@H](O)[C@H]1O

>  <standard_inchi>  (2) 
InChI=1S/C10H12N4O5/c15-1-4-6(16)7(17)10(19-4)14-3-13-5-8(14)11-2-12-9(5)18/h2-4,6-7,10,15-17H,1H2,(H,11,12,18)/t4-,6-,7-,10-/m1/s1

>  <standard_inchi_key>  (2) 
UGQMRVRMYYASKQ-KQYNXXCUSA-N

>  <name>  (2) 
inosine

>  <iupac_name>  (2) 
9-[(2~{R},3~{R},4~{S},5~{R})-3,4-dihydroxy-5-(hydroxymethyl)tetrahydrofuran-2-yl]-1~{H}-purin-6-one

>  <annotation_level>  (2) 
5

>  <total_atom_count>  (2) 
31

>  <heavy_atom_count>  (2) 
19

>  <molecular_weight>  (2) 
268.23

>  <exact_molecular_weight>  (2) 
268.08077

>  <molecular_formula>  (2) 
C10H12N4O5

>  <alogp>  (2) 
-2.27

>  <topological_polar_surface_area>  (2) 
133.49

>  <rotatable_bond_count>  (2) 
2

>  <hydrogen_bond_acceptors>  (2) 
8

>  <hydrogen_bond_donors>  (2) 
4

>  <hydrogen_bond_acceptors_lipinski>  (2) 
8

>  <hydrogen_bond_donors_lipinski>  (2) 
4

>  <lipinski_rule_of_five_violations>  (2) 
0

>  <aromatic_rings_count>  (2) 
2

>  <qed_drug_likeliness>  (2) 
0.48

>  <formal_charge>  (2) 
0

>  <fractioncsp3>  (2) 
0.50

>  <number_of_minimal_rings>  (2) 
3

>  <van_der_walls_volume>  (2) 
214.82

>  <contains_sugar>  (2) 
False

>  <contains_ring_sugars>  (2) 
False

>  <contains_linear_sugars>  (2) 
False

>  <murcko_framework>  (2) 
N1=CNCc2ncn(c12)C3OCCC3

>  <np_likeness>  (2) 
1.19

>  <chemical_class>  (2) 
Purine nucleosides

>  <chemical_sub_class>  (2) 
Purine nucleosides

>  <chemical_super_class>  (2) 
Nucleosides, nucleotides, and analogues

>  <direct_parent_classification>  (2) 
Purine nucleosides

>  <np_classifier_pathway>  (2) 
Carbohydrates

>  <np_classifier_superclass>  (2) 
Nucleosides

>  <np_classifier_class>  (2) 
Purine nucleos(t)ides

>  <np_classifier_is_glycoside>  (2) 
False

>  <organisms>  (2) 
Botryosphaeria rhodina

>  <collections>  (2) 
AnalytiCon Discovery NPs|BIOFACQUIM|ChEMBL NPs|Latin America dataset|TCMDB-Taiwan (Traditional Chinese Medicine database)

>  <dois>  (2) 
10.1021/jf070082b

>  <synonyms>  (2) 
58-63-9|Hypoxanthosine|Ribonosine|Atorel|Oxiamin|Hypoxanthine riboside|Trophicardyl|Selfer|Pantholic-L|(-)-Inosine|beta-Inosine|Hypoxanthine ribonucleoside|9-beta-D-Ribofuranosylhypoxanthine|Inosina|Inosinum|Inosie|iso-prinosine|INO 495|Inosine INN:JAN|Inosinum INN-Latin|Inosina INN-Spanish|hypoxanthine-ribose|Hypoxanthine| 9-beta-D-ribofuranosyl-|Inotin|INO|AI3-52241|NSC 20262|beta-D-Ribofuranoside| hypoxanthine-9|HXR|Hypoxanthine-9-beta-D-ribofuranoside|MFCD00066770|MLS000028518|DTXSID2045993|CHEBI:17596|5A614L51CT|1|9-Dihydro-9-beta-D-ribofuranosyl-6H-purin-6-one|NSC-20262|9-beta-D-ribofuranosyl-9H-purin-6-ol|CID 5274258|SMR000058316|9-(2R|3R|4S|5R)-3|4-dihydroxy-5-(hydroxymethyl)oxolan-2-yl-6|9-dihydro-1H-purin-6-one|DTXCID0025993|(2R|3S|4R|5R)-2-(hydroxymethyl)-5-(6-hydroxypurin-9-yl)oxolane-3|4-diol|9-((2R|3R|4S|5R)-3|4-dihydroxy-5-(hydroxymethyl)tetrahydrofuran-2-yl)-1H-purin-6(9H)-one|9-(2S|5S)-3|4-dihydroxy-5-(hydroxymethyl)tetrahydrofuran-2-yl-1|9-dihydro-6H-purin-6-one|CAS-58-63-9|SR-01000721862|EINECS 200-390-4|Catacol|UNII-5A614L51CT|3h-inosine|D-Inosine|2ada|2fqw|NCGC00095787-01|Adenosine Imp. G (EP); Inosine; Didanosine Imp. B (Ph. Int.); 9-beta-D-Ribofuranosyl-1|9-dihydro-6H-purin-6-one; Adenosine Impurity G; Didanosine Impurity B|Inosine|(S)|Inotin (TN)|Inosine (JAN\/INN)|1a4m|INOSINE INCI|Inosine (8CI|9CI)|INOSINE INN|INOSINE JAN|INOSINE MI|INOSINE MART.|Opera_ID_1628|INOSINE WHO-DD|INOSINE WHO-IP|bmse000098|bmse000888|cid_6021|CHEMBL1556|SCHEMBL15804|KBioGR_002560|KBioSS_002569|INOSINE USP IMPURITY|GTPL4554|Inosine| >=99% (HPLC)|BDBM22104|KBio2_002560|KBio2_005128|KBio2_007696|KBio3_003038|9-b-D-ribofuranosyl-Hypoxanthine|cMAP_000084|HMS2235I17|9-beta-D-Ribofuranosyl-1|9-dihydro-6H-purin-6-one (Inosine)|AMY30713|HY-N0092|Tox21_111522|BDBM50366815|s2442|AKOS015969695|AKOS015995607|AKOS024462561|Atorel; HXR; Hypoxanthine D-riboside|9-beta-delta-ribofuranosyl-Hypoxanthine|AM83935|CCG-267127|CS-5845|DB04335|DIDANOSINE IMPURITY B WHO-IP|Hypoxanthine 9-beta-delta-ribofuranoside|SMP1_000165|NCGC00096119-02|AS-11754|BP-51105|ADENOSINE IMPURITY G EP IMPURITY|DB-029916|DIDANOSINE IMPURITY B EP IMPURITY|I0037|NS00010210|C00294|D00054|EN300-310328|Q422564|AC89F8E4-FD89-45EE-8B41-94DFC07AB42F|BRD-K79612754-001-21-7|6H-Purin-6-one| 1|9-dihydro-9-beta-D-ribofuranosyl-|Z2681890654|9-.BETA.-D-RIBOFURANOSYL-1|9-DIHYDRO-6H-PURIN-6-ONE|(2R|3S|4R|5R)-2-(hydroxymethyl)-5-(6-hydroxy-9H-purin-9-yl)tetrahydrofuran-3|4-diol|9-(3|4-DIHYDROXY-5-HYDROXYMETHYL-TETRAHYDRO-FURAN-2-YL)-1|9-DIHYDRO-PURIN-6-ONE|InChI=1\/C10H12N4O5\/c15-1-4-6(16)7(17)10(19-4)14-3-13-5-8(14)11-2-12-9(5)18\/h2-4|6-7|10|15-17H|1H2|(H|11|12|18)\/t4-|6-|7-|10-\/m1\/s

>  <cas>  (2) 
58-63-9

$$$$

     RDKit          2D

 23 24  0  0  0  0  0  0  0  0999 V2000
   -6.2987   -0.9521    0.0000 O   0  0  0  0  0  0  0  0  0  0  0  0
   -4.9230   -1.5502    0.0000 C   0  0  0  0  0  0  0  0  0  0  0  0
   -3.7173   -0.6579    0.0000 C   0  0  0  0  0  0  0  0  0  0  0  0
   -2.2867   -1.1089    0.0000 O   0  0  0  0  0  0  0  0  0  0  0  0
   -1.4157    0.1123    0.0000 C   0  0  0  0  0  0  0  0  0  0  0  0
   -0.2922   -0.8816    0.0000 C   0  0  0  0  0  0  0  0  0  0  0  0
   -0.5912   -2.3515    0.0000 O   0  0  0  0  0  0  0  0  0  0  0  0
   -0.3098    1.1257    0.0000 O   0  0  0  0  0  0  0  0  0  0  0  0
    1.1208    0.6747    0.0000 C   0  0  0  0  0  0  0  0  0  0  0  0
    1.4455   -0.7898    0.0000 O   0  0  0  0  0  0  0  0  0  0  0  0
    2.8761   -1.2408    0.0000 C   0  0  0  0  0  0  0  0  0  0  0  0
    3.2008   -2.7052    0.0000 C   0  0  0  0  0  0  0  0  0  0  0  0
    2.0949   -3.7186    0.0000 O   0  0  0  0  0  0  0  0  0  0  0  0
    3.9820   -0.2274    0.0000 C   0  0  0  0  0  0  0  0  0  0  0  0
    5.4126   -0.6784    0.0000 O   0  0  0  0  0  0  0  0  0  0  0  0
    3.6573    1.2371    0.0000 C   0  0  0  0  0  0  0  0  0  0  0  0
    4.7631    2.2505    0.0000 O   0  0  0  0  0  0  0  0  0  0  0  0
    2.2267    1.6881    0.0000 C   0  0  0  0  0  0  0  0  0  0  0  0
    1.9020    3.1525    0.0000 O   0  0  0  0  0  0  0  0  0  0  0  0
   -2.3080    1.3180    0.0000 C   0  0  0  0  0  0  0  0  0  0  0  0
   -1.8570    2.7486    0.0000 O   0  0  0  0  0  0  0  0  0  0  0  0
   -3.7304    0.8420    0.0000 C   0  0  0  0  0  0  0  0  0  0  0  0
   -4.9516    1.7130    0.0000 O   0  0  0  0  0  0  0  0  0  0  0  0
  1  2  1  0
  3  2  1  6
  3  4  1  0
  4  5  1  0
  5  6  1  1
  6  7  1  0
  5  8  1  0
  9  8  1  6
  9 10  1  0
 10 11  1  0
 11 12  1  1
 12 13  1  0
 11 14  1  0
 14 15  1  6
 14 16  1  0
 16 17  1  1
 16 18  1  0
 18 19  1  6
  5 20  1  0
 20 21  1  6
 20 22  1  0
 22 23  1  1
 22  3  1  0
 18  9  1  0
M  END
>  <identifier>  (3) 
CNP0208561.1

>  <canonical_smiles>  (3) 
OC[C@H]1O[C@@](CO)(O[C@H]2O[C@H](CO)[C@@H](O)[C@H](O)[C@H]2O)[C@@H](O)[C@@H]1O

>  <standard_inchi>  (3) 
InChI=1S/C12H22O11/c13-1-4-6(16)8(18)9(19)11(21-4)23-12(3-15)10(20)7(17)5(2-14)22-12/h4-11,13-20H,1-3H2/t4-,5-,6-,7-,8+,9-,10+,11-,12+/m1/s1

>  <standard_inchi_key>  (3) 
CZMRCDWAGMRECN-UGDNZRGBSA-N

>  <name>  (3) 
sucrose

>  <iupac_name>  (3) 
(2~{R},3~{R},4~{S},5~{S},6~{R})-2-[(2~{S},3~{S},4~{S},5~{R})-3,4-dihydroxy-2,5-bis(hydroxymethyl)tetrahydrofuran-2-yl]oxy-6-(hydroxymethyl)tetrahydropyran-3,4,5-triol

>  <annotation_level>  (3) 
5

>  <total_atom_count>  (3) 
45

>  <heavy_atom_count>  (3) 
23

>  <molecular_weight>  (3) 
342.3

>  <exact_molecular_weight>  (3) 
342.11621

>  <molecular_formula>  (3) 
C12H22O11

>  <alogp>  (3) 
-5.40

>  <topological_polar_surface_area>  (3) 
189.53

>  <rotatable_bond_count>  (3) 
5

>  <hydrogen_bond_acceptors>  (3) 
11

>  <hydrogen_bond_donors>  (3) 
8

>  <hydrogen_bond_acceptors_lipinski>  (3) 
11

>  <hydrogen_bond_donors_lipinski>  (3) 
8

>  <lipinski_rule_of_five_violations>  (3) 
2

>  <aromatic_rings_count>  (3) 
0

>  <qed_drug_likeliness>  (3) 
0.24

>  <formal_charge>  (3) 
0

>  <fractioncsp3>  (3) 
1.00

>  <number_of_minimal_rings>  (3) 
2

>  <van_der_walls_volume>  (3) 
282.29

>  <contains_sugar>  (3) 
True

>  <contains_ring_sugars>  (3) 
True

>  <contains_linear_sugars>  (3) 
False

>  <murcko_framework>  (3) 
O1CCCCC1OC2OCCC2

>  <np_likeness>  (3) 
2.14

>  <chemical_class>  (3) 
Organooxygen compounds

>  <chemical_sub_class>  (3) 
Ethers

>  <chemical_super_class>  (3) 
Organic oxygen compounds

>  <direct_parent_classification>  (3) 
Ketals

>  <np_classifier_pathway>  (3) 
Carbohydrates

>  <np_classifier_superclass>  (3) 
Saccharides

>  <np_classifier_class>  (3) 
Disaccharides

>  <np_classifier_is_glycoside>  (3) 
True

>  <organisms>  (3) 
Abedus herberti|Abelmoschus esculentus|Acacia farnesiana|Acacia lasiopetala|Acacia mearnsii|Acanthopanax senticosus|Actinidia chinensis|Adesmia boronioides|Afrocarpus gracilior|Agaricus bisporus|Agathis macrophylla|Agave xylonacantha|Agrobacterium aurantiacum|Agrobacterium tumefaciens|Alexandrium peruvianum|Allium ampeloprasum|Allium ascalonicum|Allium fistulosum|Allium sativum|Allium schoenoprasum|Allium stipitatum|Aloe africana|Aloe ferox|Aloe spicata|Aloe vera|Alstonia muelleriana|Alstonia pittieri|Amomum villosum|Anabaena laxa|Anacardium occidentale|Ananas comosus|Androcymbium palaestinum|Angiopteris evecta|Ankistrodesmus braunii|Annona cherimola|Annona muricata|Anthemis cretica|Anthriscus cerefolium|Antiphiona pinnatisecta|Aphanoascus terreus|Apium graveolens|Aplidiopsis confluata|Arachis hypogaea|Arachniodes exilis|Arctium lappa|Armoracia rusticana|Aronia melanocarpa|Artemisia argentea|Artemisia cina|Artemisia incanescens|Artocarpus altilis|Artocarpus heterophyllus|Asparagus officinalis|Asphodeline damascena|Astragalus membranaceus|Astragalus mongholicus|Avena sativa|Averrhoa carambola|Banisteriopsis caapi|Benincasa hispida|Bertholletia excelsa|Beta vulgaris|Boletus pini|Bombus pascuorum|Bos taurus|Bothriocline laxa|Brassica alboglabra|Brassica juncea|Brassica napus|Brassica oleracea|Brassica oleracea var. sabauda|Brassica rapa|Brassica ruvo|Breea segeta|Brodiaea californica|Broussonetia kazinoki|Broussonetia papyrifera|Bryothamnion triquetrum|Bunium incrassatum|Bupleurum chinense|Bupleurum falcatum|Bupleurum scorzonerifolium|Burkholderia cepacia|Byrsonima crassifolia|Cajanus cajan|Callicarpa americana|Caloboletus calopus|Calophyllum inophyllum|Camellia sinensis|Cantharellus cibarius|Capparis spinosa|Capsicum annuum|Carica papaya|Carum carvi|Carya illinoinensis|Cathormion altissimum|Centaurea iberica|Centaurea solstitialis|Ceratonia siliqua|Ceroplastes pseudoceriferus|Chaetomella raphigera|Chara ceratophylla|Chlamydomonas reinhardtii|Chlorurus gibbus|Chondrus crispus|Chrysanthemum coronarium|Chrysanthemum foeniculaceum|Chrysanthemum indicum|Chrysanthemum x morifolium|Cicer arietinum|Cichorium endivia|Cichorium intybus|Cinnamomum aromaticum|Cirsium setosum|Citrullus lanatus|Citrus aurantiifolia|Citrus latifolia|Citrus limon|Citrus paradisi|Citrus reticulata|Citrus sinensis|Cleidion spiciflorum|Cocculus laurifolius|Cocos nucifera|Codonopsis pilosula|Codonopsis pilosula subsp. tangshen|Coffea arabica|Coffea canephora|Coleogyne ramosissima|Colocasia esculenta|Corchorus olitorius|Coreopsis nodosa|Coriandrum sativum|Cosmos diversifolius|Crassostrea virginica|Crateva religiosa|Cremastra appendiculata|Croton ruizianus|Cryptocarya oblata|Cryptocarya pleurosperma|Cucumis melo|Cucumis sativus|Cucurbita maxima|Cucurbita moschata|Cucurbita pepo|Cuminum cyminum|Curcuma caesia|Curcuma longa|Cuscuta salina|Cyathula tomentosa|Cyberlindnera jadinii|Cydonia oblonga|Cynara cardunculus var. scolymus|Cyperus papyrus|Cystoseira caespitosa|Dacrydium cupressinum|Daiswa dunniana|Dalbergia cochinchinensis|Daucus carota|Delphinium geyeri|Dendrobium candidum|Dendrobium chrysanthum|Dendrobium chrysotoxum|Dendrobium fimbriatum|Dendrobium fuscescens|Dendrobium loddigesii|Dendrobium nobile|Desmodium canum|Dillenia philippinensis|Dimorphotheca aurantiaca|Diospyros kaki|Dipsacus asper|Dipsacus asperoides|Doris obsoleta|Durio zibethinus|Echium italicum|Enicosanthum cupulare|Epimedium wushanense|Eragrostis tef|Eriocaulon ligulatum|Eruca vesicaria|Erythrina pallida|Erythrophleum couminga|Escherichia coli|Eucalyptus australiana|Eucalyptus kitsoniana|Eucommia ulmoides|Euphorbia antiquorum|Euphorbia sanctae-catharinae|Euphrasia rubra|Euryops pedunculatus|Exochorda giraldii|Fagopyrum esculentum|Fagus grandifolia|Feijoa sellowiana|Ficus carica|Flammulina velutipes|Flavoparmelia euplecta|Foeniculum vulgare|Fragaria x ananassa|Ganoderma lucidum|Ganoderma sinense|Garcinia mangostana|Garcinia purpurea|Gastrodia elata|Genista purgans|Gleichenia japonica|Glossogyne tenuifolia|Glycine max|Glycine tomentella|Gnathotrichus sulcatus|Grateloupia filicina|Grifola frondosa|Gunnera perpensa|Gymnopus androsaceus|Gynochthodes officinalis|Gypsophila oldhamiana|Haematococcus lacustris|Hansenia forbesii|Hansenia weberbaueriana|Helianthus annuus|Helianthus tuberosus|Helicoverpa armigera|Hibiscus sabbariffa|Himantoglossum hircinum|Homo sapiens|Hordeum vulgare|Hordeum vulgare var. distichon|Hovea linearis|Hylobius abietis|Hymenocallis littoralis|Hypholoma capnoides|Hypoxylon rubiginosum|Hypoxylon tinctor|Ichthyothere latifolia|Inga velutina|Ipomoea batatas|Isolona campanulata|Juglans regia|Juniperus foetidissima|Kopsia longiflora|Lablab purpureus|Lachnophyllum gossypinum|Lactarius deliciosus var. deterrimus|Lactuca sativa|Lactuca serriola|Lagochilus leiacanthus|Laurencia decumbens|Laurencia pacifica|Lens culinaris|Lentinus edodes|Lepidium sativum|Lepidophorum repandum|Lethasterias fusca|Leuconostoc mesenteroides|Ligularia brachyphylla|Ligusticum jeholense|Ligusticum sinense|Ligusticum tenuissimum|Ligustrum lucidum|Lindera sericea|Linum usitatissimum|Litchi chinensis|Lonchocarpus longistylus|Lonicera confusa|Lonicera fulvotomentosa|Lonicera hypoglauca|Lonicera macranthoides|Luffa aegyptiaca|Lycopersicon esculentum|Lycopodium japonicum|Lycopodium obscurum|Maackia tashiroi|Malouetia tamaquarina|Malpighia emarginata|Malus pumila|Mangifera indica|Manihot esculenta|Maranta arundinacea|Marsdenia tenacissima|Medicago sativa|Melanogrammus aeglefinus|Metalasia cymbifolia|Methanosarcina barkeri|Mitragyna inermis|Momordica charantia|Morus alba|Morus bombycis|Morus nigra|Mus musculus|Musa acuminata|Musa x paradisiaca|Myristica fragrans|Myristica malabarica|Nasturtium officinale|Neopicrorhiza scrophulariiflora|Neorautanenia ficifolia|Nicotiana undulata|Notholaena lemmonii|Notholirion bulbuliferum|Ocimum basilicum|Ocimum pilosum|Onobrychis viciifolia|Onychium lucidum|Opuntia cochenillifera|Opuntia macrorhiza|Origanum majorana|Origanum vulgare|Ormosia nobilis|Oryza sativa|Ostericum grosseserratum|Othonna dentata|Oxytropis muricata|Pachyrhizus erosus|Paeonia hybrid|Paeonia lactiflora|Paeonia suffruticosa|Paeonia veitchii|Panax schinseng|Pangium edule|Panicum miliaceum|Papaver somniferum|Paramecium tetraurelia|Passiflora edulis|Passiflora incarnata|Pastinaca sativa|Pediomelum esculentum|Penicillium chrysogenum|Perilla frutescens|Perriera orientalis|Persea americana|Perymenium berlandieri|Petiveria alliacea|Petroselinum crispum|Phaseolus lunatus|Phaseolus vulgaris|Phelline lucida|Phlomoides rotata|Phoenix dactylifera|Phyllostachys edulis|Physalis philadelphica|Phytolacca americana|Picrorhiza kurrooa|Piper nigrum|Piptostigma fugax|Pistacia vera|Pisum sativum|Plagiomnium cuspidatum|Plantago asiatica|Plectranthus lanuginosus|Plectranthus ornatus|Plectranthus saccatus|Pleione bulbocodioides|Pleione yunnanensis|Pleurotus ostreatus|Pogostemon cablin|Populus yunnanensis|Porphyra laciniata|Pouteria sapota|Prunus armeniaca|Prunus avium|Prunus cerasus|Prunus domestica|Prunus dulcis|Prunus persica|Prunus virginiana|Pseudocyclosorus subochthodes|Pseudocyphellaria rubella|Pseudofumaria lutea|Pseudostellaria heterophylla|Psidium guajava|Psila boliviensis|Pteris cretica var. nervosa|Pteris multifida|Pterocladiella tenuis|Pueraria montana var. lobata|Punica granatum|Pyrenula japonica|Pyrrosia lingua|Pyrrosia sheareri|Pyrus communis|Pyrus pyrifolia|Quercus ithaburensis subsp. macrolepis|Raphanus sativus|Rehmannia glutinosa|Rheum rhabarbarum|Rhodanthe maryonii|Rhodococcus fascians|Rhododendron campylocarpum|Rhododendron mucronatum|Rhododendron ungerni|Ribes nigrum|Ribes rubrum|Ribes uva-crispa|Rosa transmorrisonensis|Rubia akane|Rubus loganobaccus|Rubus spectabilis|Rubus ursinus|Russula japonica|Sabal blackburniana|Saccharomyces cerevisiae|Saccharomyces pastori|Saccharum officinarum|Salvia miltiorrhiza|Salvia officinalis|Salvia oxyodon|Sander lucioperca|Saussurea lappa|Scabiosa comosa|Scapania aequiloba|Scopolia parviflora|Scrophularia umbrosa|Scutellaria baicalensis|Secale cereale|Sechium edule|Senecio oxyodontus|Senecio paludaffinis|Senecio sarracenicus|Senna alexandrina|Sesamum orientale|Shorea wangtianshuea|Sidnyum turbinatum|Sinapis alba|Sinopodophyllum hexandrum|Sinularia facile|Solanum lycopersicum|Solanum melongena|Solanum pseudopersicum|Solanum quitoense|Solanum sublobatum|Solanum tuberosum|Solenopsis punctaticeps|Sophora flavescens|Sophora tonkinensis|Sorghum bicolor|Spartium junceum|Spergula japonica|Sphaerellopsis filum|Spinacia oleracea|Stellaria dichotoma|Stephania aculeata|Stocksia brahuica|Streptomyces bobili|Streptomyces erythrochromogenes|Streptomyces flocculus|Streptomyces noursei|Streptomyces viridogenes|Strychnos erichsonii|Strychnos ignatii|Strychnos tricalysioides|Stylissa flabelliformis|Sus scrofa|Sus scrofa domesticus|Swertia pseudochinensis|Syzygium aromaticum|Tachigalia paniculata|Tachypleus tridentatus|Tadehagi triquetrum|Tamarindus indica|Tapinella panuoides|Taraxacum borealisinense|Taraxacum coreanum|Taraxacum mongolicum|Taraxacum officinale|Taraxacum platycarpum|Thamnophis sirtalis|Theobroma cacao|Thymus vulgaris|Toddalia aculeata|Trichodesma incanum|Trifolium subterraneum|Trigonella grandiflora|Tripolium pannonicum|Triticum aestivum|Triticum spelta|Triticum turanicum|Turnera diffusa|Tussilago farfara|Typha angustifolia|Undaria pinnatifida|Urochloa decumbens|Uvaria calamistrata|Vaccinium alaskaense|Vaccinium macrocarpon|Vaccinium myrtillus|Vaccinium vitis-idaea|Vernonia cumingiana|Vicia faba|Vigna radiata|Vigna unguiculata|Vitis rotundifolia|Vitis vinifera|Wahlenbergia marginata|Xanthorrhoea resinosa|Xanthosoma sagittifolium|Xenia florida|Xenia obscuronata|Xylaria mellissii|Zanthoxylum rigidum|Zea mays|Zingiber officinale|Ziziphus jujuba

>  <collections>  (3) 
ANPDB|AfroMalariaDB|Australian natural products|BIOFACQUIM|CMAUP (cCollective molecular activities of useful plants)|ChEBI NPs|ChEMBL NPs|ConMedNP|DrugBankNP|ETM (Ethiopian Traditional Medicine) DB|FooDB|Latin America dataset|NANPDB (Natural Products from Northern African Sources)|NPASS|NuBBEDB|Phyto4Health|Super Natural II|TCMDB-Taiwan (Traditional Chinese Medicine database)|VietHerb

>  <dois>  (3) 
10.1002/nbm.1369|10.1007/s00216-012-6339-2|10.1016/j.arabjc.2011.01.022|10.1016/j.bmcl.2014.11.001|10.1016/j.foodchem.2010.05.061|10.1016/j.indcrop.2013.08.051|10.1016/j.jep.2018.10.031|10.1016/j.molbiopara.2012.08.006|10.1016/j.nutres.2014.05.005|10.1038/msb.2011.65|10.1038/nbt.2488|10.1051/CTV/20163101031|10.1071/ch9771583|10.1089/ind.2013.0013|10.1111/j.1750-3841.2008.00716.x|10.1111/tpj.12747|10.1590/S0100-40422009000100025|10.3390/molecules24203710

>  <synonyms>  (3) 
57-50-1|saccharose|sugar|Table sugar|Cane sugar|White sugar|D-Sucrose|Rohrzucker|Saccharum|Microse|Rock candy|Amerfand|Amerfond|Confectioner's sugar|Sucrose| pure|sacarosa|D-(+)-Saccharose|D-Saccharose|Sucrose| dust|D(+)-Sucrose|Sacharose|beta-D-Fructofuranosyl-alpha-D-glucopyranoside|CCRIS 2120|HSDB 500|Sucraloxum INN-Latin|CHEBI:17992|NCI-C56597|AI3-09085|alpha-D-Glucopyranosyl beta-D-fructofuranoside|Sucrose| purified|(alpha-D-Glucosido)-beta-D-fructofuranoside|EINECS 200-334-9|NSC 406942|Fructofuranoside| alpha-D-glucopyranosyl| beta-D|Glucopyranoside| beta-D-fructofuranosyl| alpha-D|DTXSID2021288|UNII-C151H8M554|GNE-410|S-67F|Glc(alpha1->2beta)Fru|alpha-D-Glucopyranoside| beta-D-fructofuranosyl-|C151H8M554|DTXCID101288|MFCD00006626|beta-D-Fruf-(2<->1)-alpha-D-Glcp|NCGC00164248-01|Sucraloxum|SUCROSE (II)|SUCROSE II|SUCROSE (USP-RS)|SUCROSE USP-RS|(2R|3R|4S|5S|6R)-2-(2S|3S|4S|5R)-3|4-dihydroxy-2|5-bis(hydroxymethyl)oxolan-2-yloxy-6-(hydroxymethyl)oxane-3|4|5-triol|SUCROSE (EP IMPURITY)|SUCROSE (EP MONOGRAPH)|Saccarose|Sucrose USAN:JAN|Compressible sugar|CAS-57-50-1|92004-84-7|Sucrose JAN:NF|Beetsugar|GLC-(1-2)FRU|Frost Sugar|Sucrose|ultrapure|Manalox AS|Sucrose| AR|Sucrose| USP|Sucrose ACS grade|Sucrose (TN)|Sugar spheres (NF)|Sugar|(S)|REFINED SUGAR|Sucrose| ACS reagent|Sucrose| reagent grade|1af6|SUGAR| WHITE|SUCROSE VANDF|Sucrose (for injection)|SUCROSE HSDB|DYSPEPSIA HEADACHE|Sucrose (JP17\/NF)|SUCROSE FCC|SUCROSE JAN|SUGAR VANDF|SUCROSE NF|Sucrose Biochemical grade|SUCROSE WHO-DD|Sucrose| SAJ first grade|SACCHARUM OFFICINALE|Sugar| compressible (NF)|bmse000119|bmse000804|bmse000918|Epitope ID:153236|Sucrose| >=99.5%|Sucrose| JIS special grade|White soft sugar (JP17)|Sucrose| analytical standard|Sucrose| cell culture tested|Sugar| confectioner's (NF)|Sucrose| p.a.| ACS reagent|CHEMBL253582|GTPL5411|CHEBI:65313|Sucrose| Molecular Biology Grade|Sucrose| >=99.5% (GC)|alpha-D-Glc-(1-2)-beta-D-Fru|SACCHARUM OFFICINALE HPUS|HY-B1779|Tox21_112093|Tox21_201397|Tox21_300410|BDBM50108105|s3598|Sucrose| for electrophoresis| >99%|AKOS024306988|Sucrose Palmitic Acid (1:1 Mixture)|DB02772|Sucrose| BioXtra| >=99.5% (GC)|a-D-Glucopyranosyl A-D-fructofuranoside|b -D-Fructofuranosyl a-D-glucopyranoside|NCGC00254237-01|NCGC00258948-01|D-Saccharose 20000 microg\/mL in Water|Sucrose| meets USP testing specifications|Sucrose| Vetec(TM) reagent grade| 99%|D-Saccharose 1000 microg\/mL in Methanol|CS-0013810|S0111|Sucrose| Grade I| plant cell culture tested|C00089|D00025|D70407|EN300-126630|Sucrose| for molecular biology| >=99.5% (GC)|SR-01000883983|Sucrose| NIST(R) SRM(R) 17f| optical rotation|J-519846|Q4027534|Sucrose| for microbiology| ACS reagent| >=99.0%|alpha-D-glucopyranosyl-(1->2)-beta-D-fructofuranoside|Sucrose| British Pharmacopoeia (BP) Reference Standard|Sucrose| European Pharmacopoeia (EP) Reference Standard|Sucrose| Vetec(TM) reagent grade| RNase and DNase free|Z1589255958|.BETA.-D-FRUCTOFURANOSYL-.ALPHA.-D-GLUCOPYRANOSIDE|beta-D-fructofuranosyl-(2&harr;1)-alpha-D-glucopyranoside|Sucrose| analytical standard| for enzymatic assay kit SCA20|.ALPHA.-D-GLUCOPYRANOSIDE| .BETA.-D-FRUCTOFURANOSYL-|SUCROSE (CONSTITUENT OF CRANBERRY LIQUID PREPARATION)|Sucrose| anhydrous| free-flowing| Redi-Dri(TM)| ACS reagent|Sucrose| BioUltra| for molecular biology| >=99.5% (HPLC)|Sucrose| United States Pharmacopeia (USP) Reference Standard|Carbon isotopes in sucrose| NIST(R) RM 8542| IAEA-CH-6 sucrose|Compressible sugar| United States Pharmacopeia (USP) Reference Standard|Sucrose| puriss.| meets analytical specification of Ph. Eur.| BP| NF|(2R|3R|4S|5S|6R)-2-(((2S|3S|4S|5R)-3|4-Dihydroxy-2|5-bis(hydroxymethyl)tetrahydrofuran-2-yl)oxy)-6-(hydroxymethyl)tetrahydro-2H-pyran-3|4|5-triol|8027-47-2|8030-20-4|85456-51-5|86101-30-6|87430-66-8|A-5|Sucrose| BioReagent| suitable for cell culture| suitable for insect cell culture| >=99.5% (GC)|Sucrose|Sugars|sucrose

>  <cas>  (3) 
57-50-1|92004-84-7|8027-47-2|8030-20-4|85456-51-5|86101-30-6|87430-66-8

$$$$

     RDKit          2D

 44 47  0  0  0  0  0  0  0  0999 V2000
    2.5305   -0.4590    0.0000 C   0  0  0  0  0  0  0  0  0  0  0  0
    2.4689    1.0397    0.0000 C   0  0  0  0  0  0  0  0  0  0  0  0
    1.1402    1.7358    0.0000 O   0  0  0  0  0  0  0  0  0  0  0  0
    1.0786    3.2345    0.0000 C   0  0  0  0  0  0  0  0  0  0  0  0
   -0.2502    3.9305    0.0000 O   0  0  0  0  0  0  0  0  0  0  0  0
   -1.5173    3.1278    0.0000 C   0  0  0  0  0  0  0  0  0  0  0  0
   -2.8461    3.8239    0.0000 C   0  0  0  0  0  0  0  0  0  0  0  0
   -2.9076    5.3226    0.0000 O   0  0  0  0  0  0  0  0  0  0  0  0
   -4.1132    3.0212    0.0000 C   0  0  0  0  0  0  0  0  0  0  0  0
   -5.4419    3.7172    0.0000 O   0  0  0  0  0  0  0  0  0  0  0  0
   -4.0516    1.5224    0.0000 C   0  0  0  0  0  0  0  0  0  0  0  0
   -5.3188    0.7197    0.0000 O   0  0  0  0  0  0  0  0  0  0  0  0
   -5.2572   -0.7790    0.0000 C   0  0  0  0  0  0  0  0  0  0  0  0
   -6.5243   -1.5817    0.0000 C   0  0  0  0  0  0  0  0  0  0  0  0
   -7.8531   -0.8857    0.0000 O   0  0  0  0  0  0  0  0  0  0  0  0
   -6.4627   -3.0805    0.0000 C   0  0  0  0  0  0  0  0  0  0  0  0
   -7.7299   -3.8832    0.0000 O   0  0  0  0  0  0  0  0  0  0  0  0
   -5.1340   -3.7765    0.0000 C   0  0  0  0  0  0  0  0  0  0  0  0
   -5.0724   -5.2752    0.0000 O   0  0  0  0  0  0  0  0  0  0  0  0
   -3.8668   -2.9738    0.0000 O   0  0  0  0  0  0  0  0  0  0  0  0
   -3.9284   -1.4750    0.0000 C   0  0  0  0  0  0  0  0  0  0  0  0
   -2.6613   -0.6723    0.0000 C   0  0  0  0  0  0  0  0  0  0  0  0
   -1.3325   -1.3684    0.0000 O   0  0  0  0  0  0  0  0  0  0  0  0
   -2.7229    0.8264    0.0000 O   0  0  0  0  0  0  0  0  0  0  0  0
   -1.4557    1.6291    0.0000 C   0  0  0  0  0  0  0  0  0  0  0  0
   -0.1270    0.9331    0.0000 C   0  0  0  0  0  0  0  0  0  0  0  0
   -0.0654   -0.5657    0.0000 O   0  0  0  0  0  0  0  0  0  0  0  0
    2.3457    4.0372    0.0000 C   0  0  0  0  0  0  0  0  0  0  0  0
    2.2841    5.5360    0.0000 O   0  0  0  0  0  0  0  0  0  0  0  0
    3.6745    3.3412    0.0000 C   0  0  0  0  0  0  0  0  0  0  0  0
    4.9416    4.1439    0.0000 O   0  0  0  0  0  0  0  0  0  0  0  0
    3.7360    1.8425    0.0000 C   0  0  0  0  0  0  0  0  0  0  0  0
    5.0648    1.1464    0.0000 N   0  0  0  0  0  0  0  0  0  0  0  0
    5.1264   -0.3523    0.0000 C   0  0  0  0  0  0  0  0  0  0  0  0
    3.8592   -1.1550    0.0000 C   0  0  0  0  0  0  0  0  0  0  0  0
    3.9208   -2.6538    0.0000 C   0  0  0  0  0  0  0  0  0  0  0  0
    2.6537   -3.4565    0.0000 C   0  0  0  0  0  0  0  0  0  0  0  0
    2.7153   -4.9552    0.0000 O   0  0  0  0  0  0  0  0  0  0  0  0
    5.2495   -3.3498    0.0000 C   0  0  0  0  0  0  0  0  0  0  0  0
    5.3111   -4.8485    0.0000 O   0  0  0  0  0  0  0  0  0  0  0  0
    6.5167   -2.5471    0.0000 C   0  0  0  0  0  0  0  0  0  0  0  0
    7.8454   -3.2431    0.0000 O   0  0  0  0  0  0  0  0  0  0  0  0
    6.4551   -1.0483    0.0000 C   0  0  0  0  0  0  0  0  0  0  0  0
    7.7223   -0.2456    0.0000 O   0  0  0  0  0  0  0  0  0  0  0  0
  2  1  1  1
  2  3  1  0
  3  4  1  0
  4  5  1  6
  6  5  1  6
  6  7  1  0
  7  8  1  1
  7  9  1  0
  9 10  1  6
  9 11  1  0
 11 12  1  6
 13 12  1  6
 13 14  1  0
 14 15  1  1
 14 16  1  0
 16 17  1  6
 16 18  1  0
 18 19  1  1
 18 20  1  0
 20 21  1  0
 21 22  1  1
 22 23  1  0
 11 24  1  0
 24 25  1  0
 25 26  1  1
 26 27  1  0
  4 28  1  0
 28 29  1  6
 28 30  1  0
 30 31  1  1
 30 32  1  0
 32 33  1  6
 34 33  1  6
 34 35  1  0
 35 36  2  0
 36 37  1  0
 37 38  1  0
 36 39  1  0
 39 40  1  6
 39 41  1  0
 41 42  1  1
 41 43  1  0
 43 44  1  6
 32  2  1  0
 43 34  1  0
 25  6  1  0
 21 13  1  0
M  END
>  <identifier>  (4) 
CNP0226609.1

>  <canonical_smiles>  (4) 
C[C@H]1O[C@H](O[C@H]2[C@H](O)[C@@H](O)[C@@H](O[C@H]3[C@H](O)[C@@H](O)[C@H](O)O[C@@H]3CO)O[C@@H]2CO)[C@H](O)[C@@H](O)[C@@H]1N[C@H]1C=C(CO)[C@@H](O)[C@H](O)[C@H]1O

>  <standard_inchi>  (4) 
InChI=1S/C25H43NO18/c1-6-11(26-8-2-7(3-27)12(30)15(33)13(8)31)14(32)19(37)24(40-6)43-22-10(5-29)42-25(20(38)17(22)35)44-21-9(4-28)41-23(39)18(36)16(21)34/h2,6,8-39H,3-5H2,1H3/t6-,8+,9-,10-,11-,12-,13+,14+,15+,16-,17-,18-,19-,20-,21-,22-,23-,24-,25-/m1/s1

>  <standard_inchi_key>  (4) 
XUFXOAAUWZOOIT-SXARVLRPSA-N

>  <name>  (4) 
acarbose

>  <iupac_name>  (4) 
(2~{R},3~{R},4~{R},5~{S},6~{R})-5-[(2~{R},3~{R},4~{R},5~{S},6~{R})-5-[(2~{R},3~{R},4~{S},5~{S},6~{R})-3,4-dihydroxy-6-methyl-5-[[(1~{S},4~{R},5~{S},6~{S})-4,5,6-trihydroxy-3-(hydroxymethyl)cyclohex-2-en-1-yl]amino]tetrahydropyran-2-yl]oxy-3,4-dihydroxy-6-(hydroxymethyl)tetrahydropyran-2-yl]oxy-6-(hydroxymethyl)tetrahydropyran-2,3,4-triol

>  <annotation_level>  (4) 
5

>  <total_atom_count>  (4) 
87

>  <heavy_atom_count>  (4) 
44

>  <molecular_weight>  (4) 
645.61

>  <exact_molecular_weight>  (4) 
645.24801

>  <molecular_formula>  (4) 
C25H43NO18

>  <alogp>  (4) 
-8.56

>  <topological_polar_surface_area>  (4) 
321.17

>  <rotatable_bond_count>  (4) 
9

>  <hydrogen_bond_acceptors>  (4) 
19

>  <hydrogen_bond_donors>  (4) 
14

>  <hydrogen_bond_acceptors_lipinski>  (4) 
19

>  <hydrogen_bond_donors_lipinski>  (4) 
14

>  <lipinski_rule_of_five_violations>  (4) 
3

>  <aromatic_rings_count>  (4) 
0

>  <qed_drug_likeliness>  (4) 
0.10

>  <formal_charge>  (4) 
0

>  <fractioncsp3>  (4) 
0.92

>  <number_of_minimal_rings>  (4) 
4

>  <van_der_walls_volume>  (4) 
541.60

>  <contains_sugar>  (4) 
True

>  <contains_ring_sugars>  (4) 
True

>  <contains_linear_sugars>  (4) 
False

>  <murcko_framework>  (4) 
O1CCCC(OC2OCC(OC3OCC(NC4C=CCCC4)CC3)CC2)C1

>  <np_likeness>  (4) 
1.83

>  <chemical_class>  (4) 
Organooxygen compounds

>  <chemical_sub_class>  (4) 
Carbohydrates and carbohydrate conjugates

>  <chemical_super_class>  (4) 
Organic oxygen compounds

>  <direct_parent_classification>  (4) 
Monosaccharides

>  <np_classifier_pathway>  (4) 
Carbohydrates

>  <np_classifier_superclass>  (4) 
Saccharides

>  <np_classifier_class>  (4) 
Amino cyclitols

>  <np_classifier_is_glycoside>  (4) 
True

>  <organisms>  (4) 
Hericium erinaceus|Hintonia latiflora|Xylaria feejeensis

>  <collections>  (4) 
BIOFACQUIM|ChEMBL NPs|ChemSpider NPs|Latin America dataset|NPASS

>  <dois>  (4) 
10.1021/np300869g|10.1021/np5004388|10.1021/np500897y

>  <synonyms>  (4) 
Precose|Prandase|Glucobay|Bay-g-5421|BAY-g 5421|Bay g 5421|CHEMBL1566|56180-94-0|Alpha-Acarbose|Glucor|CAS-56180-94-0|Arcabose|Ascarbose|1agm|1ukt|NCGC00159353-02|Acarbose| >=95%|SCHEMBL16848|GTPL6791|CHEBI:94035|BCPP000442|HMS3269L19|HMS3413P19|HMS3677P19|HMS3713B18|Tox21_111597|BDBM50333465|s1271|AKOS024457233|BCP9000224|CCG-220568|NCGC00160515-02|(2R|3R|4R|5S|6R)-5-(2R|3R|4R|5S|6R)-5-(2R|3R|4S|5S|6R)-3|4-dihydroxy-6-methyl-5-(1S|4R|5S|6S)-4|5|6-trihydroxy-3-(hydroxymethyl)cyclohex-2-en-1-ylaminooxan-2-yloxy-3|4-dihydroxy-6-(hydroxymethyl)oxan-2-yloxy-6-(hydroxymethyl)oxane-2|3|4-triol|NS00001516|AB01274765-01|AB01274765_02|A830944|EN300-27025603|Q338005|BRD-K44276885-001-01-7|Acarbose| European Pharmacopoeia (EP) Reference Standard|Acarbose| United States Pharmacopeia (USP) Reference Standard|Acarbose for identification| European Pharmacopoeia (EP) Reference Standard|Acarbose| Pharmaceutical Secondary Standard; Certified Reference Material|(2R|3R|4R|5R|6R)-5-((2R|3R|4R|5S|6R)-5-((2R|3R|4S|5S|6R)-3|4-dihydroxy-6-methyl-5-((1S|4R|5S|6S)-4|5|6-trihydroxy-3-(hydroxymethyl)cyclohex-2-enylamino)-tetrahydro-2H-pyran-2-yloxy)-3|4-dihydroxy-6-(hydroxymethyl)-tetrahydro-2H-pyran-2-yloxy)-6-(hydroxymethyl)-tetrahydro-2H-pyran-2|3|4-triol|4|6-Dideoxy-4-(1S-1|4|6\/5-4|5|6-trihydroxy-3-hydroxymethyl-2-yclohexenylamino)maltotriose|4-5-3|4-dihydroxy-6-methyl-5-2|3|4-trihydroxy-5-(hydroxymethyl)cyclohexylaminotetrahydropyran-2-yloxy-3|4-dihydroxy-6-(hydroxymethyl)tetrahydropyran-2-yloxy-2|3|5|6-tetrahydroxy-hexanal;Acarbose|5-{5-3|4-Dihydroxy-6-methyl-5-(4|5|6-trihydroxy-3-hydroxymethyl-cyclohex-2-enylamino)-tetrahydro-pyran-2-yloxy-3|4-dihydroxy-6-hydroxymethyl-tetrahydro-pyran-2-yloxy}-6-hydroxymethyl-tetrahydro-pyran-2|3|4-triol|D-Glucose| O-4|6-dideoxy-4-(1S|4R|5S|6S)-4|5|6-trihydroxy-3-(hydroxymethyl)-2-cyclohexen-1-ylamino-.alpha.-D-glucopyranosyl-(1->4)-O-.alpha.-D-glucopyranosyl-(1->4)-

>  <cas>  (4) 
56180-94-0

$$$$

     RDKit          2D

 14 14  0  0  0  0  0  0  0  0999 V2000
   -4.5706    1.2504    0.0000 O   0  0  0  0  0  0  0  0  0  0  0  0
   -3.0726    1.3278    0.0000 C   0  0  0  0  0  0  0  0  0  0  0  0
   -2.2566    0.0692    0.0000 C   0  0  0  0  0  0  0  0  0  0  0  0
   -0.7586    0.1466    0.0000 N   0  0  0  0  0  0  0  0  0  0  0  0
   -0.0766    1.4826    0.0000 C   0  0  0  0  0  0  0  0  0  0  0  0
    1.4214    1.5600    0.0000 C   0  0  0  0  0  0  0  0  0  0  0  0
    2.1033    2.8961    0.0000 O   0  0  0  0  0  0  0  0  0  0  0  0
    2.2374    0.3014    0.0000 C   0  0  0  0  0  0  0  0  0  0  0  0
    3.7354    0.3789    0.0000 O   0  0  0  0  0  0  0  0  0  0  0  0
    1.5555   -1.0346    0.0000 C   0  0  0  0  0  0  0  0  0  0  0  0
    2.3715   -2.2932    0.0000 O   0  0  0  0  0  0  0  0  0  0  0  0
    0.0575   -1.1120    0.0000 C   0  0  0  0  0  0  0  0  0  0  0  0
   -0.6245   -2.4480    0.0000 C   0  0  0  0  0  0  0  0  0  0  0  0
   -2.1225   -2.5254    0.0000 O   0  0  0  0  0  0  0  0  0  0  0  0
  1  2  1  0
  2  3  1  0
  3  4  1  0
  4  5  1  0
  5  6  1  0
  6  7  1  6
  6  8  1  0
  8  9  1  1
  8 10  1  0
 10 11  1  6
 10 12  1  0
 12 13  1  1
 13 14  1  0
 12  4  1  0
M  END
>  <identifier>  (5) 
CNP0388598.1

>  <canonical_smiles>  (5) 
OCCN1C[C@H](O)[C@@H](O)[C@H](O)[C@H]1CO

>  <standard_inchi>  (5) 
InChI=1S/C8H17NO5/c10-2-1-9-3-6(12)8(14)7(13)5(9)4-11/h5-8,10-14H,1-4H2/t5-,6+,7-,8-/m1/s1

>  <standard_inchi_key>  (5) 
IBAQFPQHRJAVAV-ULAWRXDQSA-N

>  <name>  (5) 
MIGLITOL

>  <iupac_name>  (5) 
(2~{R},3~{R},4~{R},5~{S})-1-(2-hydroxyethyl)-2-(hydroxymethyl)piperidine-3,4,5-triol

>  <annotation_level>  (5) 
5

>  <total_atom_count>  (5) 
31

>  <heavy_atom_count>  (5) 
14

>  <molecular_weight>  (5) 
207.23

>  <exact_molecular_weight>  (5) 
207.11067

>  <molecular_formula>  (5) 
C8H17NO5

>  <alogp>  (5) 
-3.26

>  <topological_polar_surface_area>  (5) 
104.39

>  <rotatable_bond_count>  (5) 
3

>  <hydrogen_bond_acceptors>  (5) 
6

>  <hydrogen_bond_donors>  (5) 
5

>  <hydrogen_bond_acceptors_lipinski>  (5) 
6

>  <hydrogen_bond_donors_lipinski>  (5) 
5

>  <lipinski_rule_of_five_violations>  (5) 
0

>  <aromatic_rings_count>  (5) 
0

>  <qed_drug_likeliness>  (5) 
0.33

>  <formal_charge>  (5) 
0

>  <fractioncsp3>  (5) 
1.00

>  <number_of_minimal_rings>  (5) 
1

>  <van_der_walls_volume>  (5) 
188.77

>  <contains_sugar>  (5) 
False

>  <contains_ring_sugars>  (5) 
False

>  <contains_linear_sugars>  (5) 
False

>  <murcko_framework>  (5) 
N1CCCCC1

>  <np_likeness>  (5) 
1.65

>  <chemical_class>  (5) 
Piperidines

>  <chemical_sub_class>  (5) 
Piperidines

>  <chemical_super_class>  (5) 
Organoheterocyclic compounds

>  <direct_parent_classification>  (5) 
Piperidines

>  <np_classifier_pathway>  (5) 
Alkaloids

>  <np_classifier_superclass>  (5) 
Ornithine alkaloids

>  <np_classifier_class>  (5) 
Pyrrolidine alkaloids

>  <np_classifier_is_glycoside>  (5) 
False

>  <organisms>  (5) 
Hintonia latiflora

>  <collections>  (5) 
BIOFACQUIM|ChEMBL NPs|DrugBankNP|Latin America dataset

>  <dois>  (5) 
10.1021/np300869g

>  <synonyms>  (5) 
72432-03-2|Glyset|(2R|3R|4R|5S)-1-(2-hydroxyethyl)-2-(hydroxymethyl)piperidine-3|4|5-triol|Bay-m-1099|Miglitolum|Bay m 1099|Miglitol (Glyset)|UNII-0V5436JAQW|Seibule|Bay 1099|Miglitolum Latin|0V5436JAQW|DTXSID0023323|HSDB 8022|(2R|3R|4R|5S)-1-(2-Hydroxyethyl)-2-(hydroxymethyl)-3|4|5-piperidinetriol|EINECS 276-661-6|NSC-758702|N-(2-Hydroxyethyl)-1-deoxynojirimycin|CHEMBL1561|CHEBI:6935|DTXCID703323|Diastabol|Miglitolum (Latin)|Plumarol|MIGLITOL (MART.)|MIGLITOL MART.|3|4|5-Piperidinetriol| 1-(2-hydroxyethyl)-2-(hydroxymethyl)-|(2R|3R|4R|5S)-|3|4|5-Piperidinetriol| 1-(2-hydroxyethyl)-2-(hydroxymethyl)-| (2R-(2alpha|3beta|4alpha|5beta))-|SMR000466381|CAS-72432-03-2|Glyset (TN)|Miglitol USAN:INN:BAN|BAY1099;BAY-m1099|N-(2-Hydroxyethyl)moranoline|NCGC00095127-01|N-hydroxyethyl-1-desoxy-nojirimycin|MFCD00867240|SK-983|baym1099|MIGLITOL USAN|MIGLITOL INN|MIGLITOL JAN|MIGLITOL MI|MIGLITOL VANDF|1|5-Dideoxy-1|5-((2-hydroxyethyl)imino)-D-glucitol|MIGLITOL WHO-DD|1|5-Dideoxy-1|5-|SCHEMBL22593|MLS000759514|MLS001424128|MLS006011963|BIDD:GT0732|BAY o1099|MIGLITOL ORANGE BOOK|cid_441314|GTPL4842|Miglitol (JP17\/USAN\/INN)|IBAQFPQHRJAVAV-ULAWRXDQSA-N|HMS2051D05|HMS3713J07|HY-B0481|Tox21_111436|BDBM50242271|AKOS015969689|CCG-100920|DB00491|KS-1242|NC00170|NCGC00270540-02|M2302|NS00004693|S2589|C07708|C76308|D00625|EN300-119541|AB00639982-06|AB00639982_08|N-hydroxyethyl-1-desoxynojirimycin (BAY o1099)|A837526|Q772735|SR-01000759413|W-104490|BRD-K44779798-001-06-5|Z1269163651|(2R|3R|4R|5S)-1-ethoxy-2-(hydroxymethyl)piperidine-3|4|5-triol|1204250-58-7|3|4|5-PIPERIDINETRIOL| 1-(2-HYDROXYETHYL)-2-(HYDROXYMETHYL)-| (2R-(2.ALPHA.|3.BETA.|4.ALPHA.|5.BETA.))-|Miglitol

>  <cas>  (5) 
72432-03-2

$$$$

     RDKit          2D

 25 27  0  0  0  0  0  0  0  0999 V2000
   -7.4667    1.9025    0.0000 C   0  0  0  0  0  0  0  0  0  0  0  0
   -6.8509    0.5347    0.0000 O   0  0  0  0  0  0  0  0  0  0  0  0
   -5.3585    0.3841    0.0000 C   0  0  0  0  0  0  0  0  0  0  0  0
   -4.4819    1.6013    0.0000 C   0  0  0  0  0  0  0  0  0  0  0  0
   -2.9895    1.4507    0.0000 C   0  0  0  0  0  0  0  0  0  0  0  0
   -2.3737    0.0829    0.0000 C   0  0  0  0  0  0  0  0  0  0  0  0
   -0.8813   -0.0677    0.0000 C   0  0  0  0  0  0  0  0  0  0  0  0
   -0.2655   -1.4355    0.0000 C   0  0  0  0  0  0  0  0  0  0  0  0
   -1.1421   -2.6527    0.0000 O   0  0  0  0  0  0  0  0  0  0  0  0
   -2.6345   -2.5021    0.0000 C   0  0  0  0  0  0  0  0  0  0  0  0
    1.2269   -1.5861    0.0000 C   0  0  0  0  0  0  0  0  0  0  0  0
    1.8427   -2.9539    0.0000 O   0  0  0  0  0  0  0  0  0  0  0  0
    2.1036   -0.3690    0.0000 C   0  0  0  0  0  0  0  0  0  0  0  0
    3.5960   -0.5196    0.0000 C   0  0  0  0  0  0  0  0  0  0  0  0
    4.2118   -1.8874    0.0000 O   0  0  0  0  0  0  0  0  0  0  0  0
    4.4726    0.6976    0.0000 C   0  0  0  0  0  0  0  0  0  0  0  0
    5.9651    0.5470    0.0000 O   0  0  0  0  0  0  0  0  0  0  0  0
    6.5808   -0.8208    0.0000 C   0  0  0  0  0  0  0  0  0  0  0  0
    3.8569    2.0654    0.0000 C   0  0  0  0  0  0  0  0  0  0  0  0
    4.7335    3.2825    0.0000 O   0  0  0  0  0  0  0  0  0  0  0  0
    2.3645    2.2160    0.0000 C   0  0  0  0  0  0  0  0  0  0  0  0
    1.4878    0.9988    0.0000 C   0  0  0  0  0  0  0  0  0  0  0  0
   -0.0046    1.1494    0.0000 O   0  0  0  0  0  0  0  0  0  0  0  0
   -3.2503   -1.1343    0.0000 C   0  0  0  0  0  0  0  0  0  0  0  0
   -4.7427   -0.9837    0.0000 C   0  0  0  0  0  0  0  0  0  0  0  0
  1  2  1  0
  2  3  1  0
  3  4  2  0
  4  5  1  0
  5  6  2  0
  6  7  1  0
  7  8  2  0
  8  9  1  0
  9 10  1  0
  8 11  1  0
 11 12  2  0
 11 13  1  0
 13 14  2  0
 14 15  1  0
 14 16  1  0
 16 17  1  0
 17 18  1  0
 16 19  2  0
 19 20  1  0
 19 21  1  0
 21 22  2  0
 22 23  1  0
  6 24  1  0
 24 25  2  0
 25  3  1  0
 23  7  1  0
 22 13  1  0
M  END
>  <identifier>  (6) 
CNP0224273.0

>  <canonical_smiles>  (6) 
COC1=CC=C(C2=C(OC)C(=O)C3=C(O)C(OC)=C(O)C=C3O2)C=C1

>  <standard_inchi>  (6) 
InChI=1S/C18H16O7/c1-22-10-6-4-9(5-7-10)16-18(24-3)15(21)13-12(25-16)8-11(19)17(23-2)14(13)20/h4-8,19-20H,1-3H3

>  <standard_inchi_key>  (6) 
DWZAJFZEYZIHPO-UHFFFAOYSA-N

>  <name>  (6) 
Santin

>  <iupac_name>  (6) 
5,7-dihydroxy-3,6-dimethoxy-2-(4-methoxyphenyl)chromen-4-one

>  <annotation_level>  (6) 
5

>  <total_atom_count>  (6) 
41

>  <heavy_atom_count>  (6) 
25

>  <molecular_weight>  (6) 
344.32

>  <exact_molecular_weight>  (6) 
344.0896

>  <molecular_formula>  (6) 
C18H16O7

>  <alogp>  (6) 
2.90

>  <topological_polar_surface_area>  (6) 
98.36

>  <rotatable_bond_count>  (6) 
4

>  <hydrogen_bond_acceptors>  (6) 
7

>  <hydrogen_bond_donors>  (6) 
2

>  <hydrogen_bond_acceptors_lipinski>  (6) 
7

>  <hydrogen_bond_donors_lipinski>  (6) 
2

>  <lipinski_rule_of_five_violations>  (6) 
0

>  <aromatic_rings_count>  (6) 
3

>  <qed_drug_likeliness>  (6) 
0.75

>  <formal_charge>  (6) 
0

>  <fractioncsp3>  (6) 
0.17

>  <number_of_minimal_rings>  (6) 
3

>  <van_der_walls_volume>  (6) 
291.34

>  <contains_sugar>  (6) 
False

>  <contains_ring_sugars>  (6) 
False

>  <contains_linear_sugars>  (6) 
False

>  <murcko_framework>  (6) 
O1c2ccccc2CC=C1c3ccccc3

>  <np_likeness>  (6) 
1.22

>  <chemical_class>  (6) 
Flavonoids

>  <chemical_sub_class>  (6) 
O-methylated flavonoids

>  <chemical_super_class>  (6) 
Phenylpropanoids and polyketides

>  <direct_parent_classification>  (6) 
6-O-methylated flavonoids

>  <np_classifier_pathway>  (6) 
Shikimates and Phenylpropanoids

>  <np_classifier_superclass>  (6) 
Flavonoids

>  <np_classifier_class>  (6) 
Flavonols

>  <np_classifier_is_glycoside>  (6) 
False

>  <organisms>  (6) 
Achillea atrata|Achillea atrata subsp. multifida|Achillea collina|Achillea latiloba|Achillea ligustica|Achillea millefolium|Achillea multifida|Actinobacillus pleuropneumoniae|Aeonium spp.|Ageratina espinosara|Ajania fruticulosa|Alluaudia sp.|Alnus glutinosa|Alnus japonica|Alnus spp.|Amoora yunnanensis|Anemopaegma mirandum|Annona rensoniana|Annulohypoxylon cohaerens|Anthemis tinctoria|Arachniodes dimorphophylla|Aragoa lucidula|Aristolochia maxima|Artemisia barrelieri|Artemisia vachanica|Asparagus africanus|Aspicilia caesiocinerea|Bergenia purpurascens|Betula ermanii|Betula mandshurica|Betula spp.|Bischofia trifoliata|Blumea aromatica|Brickellia eupatorioides|Bugula dentata|Camellia sinensis|Caragana tibetica|Choriaster granulatus|Chrysolina fastuosa|Cistus albanicus|Corydalis pseudoadunca|Cotoneaster orbicularis|Craibiodendron henryi|Crataegus sinaica|Crataegus tanacetifolia|Croton cascarilloides|Curcuma parviflora|Dicranopteris linearis|Didemnum solidum|Digitalis orientalis|Dioscorea gracillima|Discaria crenata|Dodonaea angustifolia|Dodonaea spp.|Dodonaea viscosa|Dolichospermum affine|Drummondita hassellii|Echium rubrum|Eichhornia crassipes|Entada africana|Entada polystachya|Ericerus pela|Eupatorium cannabinum|Euphorbia ferganensis|Fuligo candida|Fumaria indica|Ganoderma australe|Gardenia jasminoides|Grindelia glutinosa|Grindelia squarrosa|Grindelia tarapacana|Halichondria melanadocia|Hendersonula toruloidea|Heterotheca grandiflora|Iberis sempervirens|Isodon rubescens|Jasminum officinale|Juglans cinerea|Julocroton camporum|Justicia ciliata|Kadsura interior|Lasiocephalus ovatus|Ligularia platyglossa|Macrotyloma axillare|Malassezia furfur|Malus asiatica|Mikania obtusata|Mola mola|Monomeria barbata|Montrouziera sphaeroidea|Neocosmospora tenuicristata|Nephroma antarcticum|Nidorella hottentotica|Onopordum algeriense|Ophelia neglecta|Oreosolen wattii|Orobanche speciosa|Paraburkholderia caryophylli|Penstemon newberryi|Pentapora fascialis|Perityle lemmonii|Phalium undulatum|Phomopsis archeri|Phyllospongia madagascarensis|Pimpinella saxifraga|Pithecellobium clypearia|Plectranthus nummularius|Polygala myrtifolia|Polygonatum zanlanscianense|Pseuduvaria indochinensis|Pteris setuloso-costulata|Rapanea myricoides|Rhodiola krylovii|Roemeria carica|Sabal serrulata|Salacia elliptica|Salvia pedicellata|Sarcomelicope argyrophylla|Sargentia greggii|Schumanniophyton magnificum|Solanum bahamense|Solanum chilense|Stevia berlandieri|Streptomyces purpeofuscus|Streptomyces rimofaciens|Tanacetum microphyllum|Tanacetum parthenium|Tanacetum vulgare|Thiocystis gelatinosa|Thorectandra excavatus|Tinospora smilacina|Tridacna gigas|Trigonostemon reidioides|Tropaeolum speciosum|Tropiometra afra|Valeriana laxiflora|Vatica diospyroides|Vitex limonifolia|Wallago attu|gardenia oudiepe|gardenia urvillei

>  <collections>  (6) 
ANPDB|AfroCancer|Australian natural products|BIOFACQUIM|CMAUP (cCollective molecular activities of useful plants)|ChEBI NPs|ConMedNP|GNPS (Global Natural Products Social Molecular Networking)|KNApSaCK|Latin America dataset|NANPDB (Natural Products from Northern African Sources)|NPASS|NPEdia|Phyto4Health|PubChem NPs|Super Natural II|TCMDB-Taiwan (Traditional Chinese Medicine database)|TCMID (Traditional Chinese Medicine Integrated Database)|UNPD (Universal Natural Products Database)|VietHerb|ZINC NP

>  <dois>  (6) 
10.1016/0031-9422(83)80234-9|10.1016/0031-9422(92)80274-i|10.1016/0305-1978(88)90071-3|10.1016/j.bse.2007.11.006|10.1016/j.ejmech.2015.01.012|10.1016/j.ejmech.2017.11.071|10.1016/j.indcrop.2015.10.011|10.1016/j.jep.2017.02.023|10.1016/j.phytol.2013.12.008|10.1016/s0031-9422(00)83141-6|10.1016/s0031-9422(99)00474-4|10.1021/acs.jnatprod.9b00674|10.1021/np960163u|10.1021/np980536m|10.1021/np990009i

>  <synonyms>  (6) 
27782-63-4|5|7-Dihydroxy-3|6|4'-trimethoxyflavone|5|7-dihydroxy-3|6-dimethoxy-2-(4-methoxyphenyl)chromen-4-one|CHEBI:9024|CHEMBL161957|5|7-Dihydroxy-3|6-dimethoxy-2-(4-methoxyphenyl)-4H-1-benzopyran-4-one|5785Y952EH|4H-1-Benzopyran-4-one| 5|7-dihydroxy-3|6-dimethoxy-2-(4-methoxyphenyl)-|CENTAURIDIN|3-METHYLBETULETOL|SCHEMBL82415|MLS000863609|MEGxp0_001724|UNII-5785Y952EH|DTXSID10182109|DWZAJFZEYZIHPO-UHFFFAOYSA-N|HMS2268N18|BDBM50240898|HY-N11423|LMPK12112861|AKOS040763256|NCGC00244968-01|SMR000440776|CS-0646581|5|7-DIHYDROXY-3|4|6-TRIMETHOXYFLAVONE|6-HYDROXYKAEMPFEROL 3|6|4-TRIMETHYL ETHER|FLAVONE| 5|7-DIHYDROXY-3|4|6-TRIMETHOXY-|Q7420435|Santin|santin|5|7-dihydro-3|4'|6-trimethoxyflavone

>  <cas>  (6) 
27782-63-4

$$$$

     RDKit          2D

 13 13  0  0  0  0  0  0  0  0999 V2000
   -3.8643    0.9543    0.0000 C   0  0  0  0  0  0  0  0  0  0  0  0
   -2.9187   -0.2102    0.0000 O   0  0  0  0  0  0  0  0  0  0  0  0
   -1.4375    0.0265    0.0000 C   0  0  0  0  0  0  0  0  0  0  0  0
   -0.9019    1.4276    0.0000 C   0  0  0  0  0  0  0  0  0  0  0  0
    0.5793    1.6643    0.0000 C   0  0  0  0  0  0  0  0  0  0  0  0
    1.1149    3.0654    0.0000 O   0  0  0  0  0  0  0  0  0  0  0  0
    1.5249    0.4999    0.0000 C   0  0  0  0  0  0  0  0  0  0  0  0
    3.0061    0.7366    0.0000 Cl  0  0  0  0  0  0  0  0  0  0  0  0
    0.9893   -0.9012    0.0000 C   0  0  0  0  0  0  0  0  0  0  0  0
    2.4621   -1.1854    0.0000 C   0  0  0  0  0  0  0  0  0  0  0  0
    0.9652   -2.4010    0.0000 O   0  0  0  0  0  0  0  0  0  0  0  0
   -0.4919   -1.1379    0.0000 C   0  0  0  0  0  0  0  0  0  0  0  0
   -1.0275   -2.5390    0.0000 O   0  0  0  0  0  0  0  0  0  0  0  0
  1  2  1  0
  2  3  1  0
  3  4  2  0
  4  5  1  0
  5  6  2  0
  5  7  1  0
  7  8  1  6
  7  9  1  0
  9 10  1  6
  9 11  1  0
  9 12  1  0
 12 13  1  1
 12  3  1  0
M  END
>  <identifier>  (7) 
CNP0080305.1

>  <canonical_smiles>  (7) 
COC1=CC(=O)[C@H](Cl)[C@@](C)(O)[C@H]1O

>  <standard_inchi>  (7) 
InChI=1S/C8H11ClO4/c1-8(12)6(9)4(10)3-5(13-2)7(8)11/h3,6-7,11-12H,1-2H3/t6-,7-,8+/m0/s1

>  <standard_inchi_key>  (7) 
XUZGFXBHALEMTN-BIIVOSGPSA-N

>  <name>  (7) 
(4r,5s,6r)-6-chloro-4,5-dihydroxy-3-methoxy-5-methylcyclohex-2-enone

>  <iupac_name>  (7) 
(4~{R},5~{S},6~{R})-6-chloro-4,5-dihydroxy-3-methoxy-5-methyl-cyclohex-2-en-1-one

>  <annotation_level>  (7) 
5

>  <total_atom_count>  (7) 
24

>  <heavy_atom_count>  (7) 
13

>  <molecular_weight>  (7) 
206.62

>  <exact_molecular_weight>  (7) 
206.03459

>  <molecular_formula>  (7) 
C8H11ClO4

>  <alogp>  (7) 
-0.18

>  <topological_polar_surface_area>  (7) 
66.76

>  <rotatable_bond_count>  (7) 
1

>  <hydrogen_bond_acceptors>  (7) 
4

>  <hydrogen_bond_donors>  (7) 
2

>  <hydrogen_bond_acceptors_lipinski>  (7) 
4

>  <hydrogen_bond_donors_lipinski>  (7) 
2

>  <lipinski_rule_of_five_violations>  (7) 
0

>  <aromatic_rings_count>  (7) 
0

>  <qed_drug_likeliness>  (7) 
0.58

>  <formal_charge>  (7) 
0

>  <fractioncsp3>  (7) 
0.63

>  <number_of_minimal_rings>  (7) 
1

>  <van_der_walls_volume>  (7) 
170.49

>  <contains_sugar>  (7) 
False

>  <contains_ring_sugars>  (7) 
False

>  <contains_linear_sugars>  (7) 
False

>  <murcko_framework>  (7) 
C1=CCCCC1

>  <np_likeness>  (7) 
2.25

>  <chemical_class>  (7) 
Organooxygen compounds

>  <chemical_sub_class>  (7) 
Carbonyl compounds

>  <chemical_super_class>  (7) 
Organic oxygen compounds

>  <direct_parent_classification>  (7) 
Cyclohexenones

>  <np_classifier_pathway>  (7) 
Polyketides

>  <np_classifier_superclass>  (7) 
Miscellaneous polyketides

>  <np_classifier_class>  (7) 
Miscellaneous polyketides

>  <np_classifier_is_glycoside>  (7) 
False

>  <organisms>  (7) 
Xylaria feejeensis

>  <collections>  (7) 
BIOFACQUIM|Latin America dataset

>  <dois>  (7) 
10.1021/acs.jafc.6b01111

>  <synonyms>  (7) 
(4R 5S 6R)-6-Chloro-4 5-dihydroxy-3-methoxy-5-methylcyclohex-2-enone

>  <cas>  (7) 
nan

$$$$

     RDKit          2D

 21 23  0  0  0  0  0  0  0  0999 V2000
   -7.0816    1.4977    0.0000 C   0  0  0  0  0  0  0  0  0  0  0  0
   -6.4377    0.1430    0.0000 O   0  0  0  0  0  0  0  0  0  0  0  0
   -4.9425    0.0233    0.0000 C   0  0  0  0  0  0  0  0  0  0  0  0
   -4.0912    1.2583    0.0000 C   0  0  0  0  0  0  0  0  0  0  0  0
   -2.5960    1.1386    0.0000 C   0  0  0  0  0  0  0  0  0  0  0  0
   -1.9520   -0.2161    0.0000 C   0  0  0  0  0  0  0  0  0  0  0  0
   -0.4568   -0.3358    0.0000 C   0  0  0  0  0  0  0  0  0  0  0  0
    0.1871   -1.6905    0.0000 C   0  0  0  0  0  0  0  0  0  0  0  0
    1.6824   -1.8102    0.0000 C   0  0  0  0  0  0  0  0  0  0  0  0
    2.3263   -3.1649    0.0000 O   0  0  0  0  0  0  0  0  0  0  0  0
    2.5336   -0.5751    0.0000 C   0  0  0  0  0  0  0  0  0  0  0  0
    4.0288   -0.6948    0.0000 C   0  0  0  0  0  0  0  0  0  0  0  0
    4.6728   -2.0496    0.0000 O   0  0  0  0  0  0  0  0  0  0  0  0
    4.8801    0.5402    0.0000 C   0  0  0  0  0  0  0  0  0  0  0  0
    4.2361    1.8950    0.0000 C   0  0  0  0  0  0  0  0  0  0  0  0
    5.0874    3.1300    0.0000 O   0  0  0  0  0  0  0  0  0  0  0  0
    2.7409    2.0147    0.0000 C   0  0  0  0  0  0  0  0  0  0  0  0
    1.8897    0.7796    0.0000 C   0  0  0  0  0  0  0  0  0  0  0  0
    0.3944    0.8993    0.0000 O   0  0  0  0  0  0  0  0  0  0  0  0
   -2.8033   -1.4511    0.0000 C   0  0  0  0  0  0  0  0  0  0  0  0
   -4.2985   -1.3315    0.0000 C   0  0  0  0  0  0  0  0  0  0  0  0
  1  2  1  0
  2  3  1  0
  3  4  2  0
  4  5  1  0
  5  6  2  0
  6  7  1  0
  7  8  2  0
  8  9  1  0
  9 10  2  0
  9 11  1  0
 11 12  2  0
 12 13  1  0
 12 14  1  0
 14 15  2  0
 15 16  1  0
 15 17  1  0
 17 18  2  0
 18 19  1  0
  6 20  1  0
 20 21  2  0
 21  3  1  0
 19  7  1  0
 18 11  1  0
M  END
>  <identifier>  (8) 
CNP0248340.0

>  <canonical_smiles>  (8) 
COC1=CC=C(C2=CC(=O)C3=C(O)C=C(O)C=C3O2)C=C1

>  <standard_inchi>  (8) 
InChI=1S/C16H12O5/c1-20-11-4-2-9(3-5-11)14-8-13(19)16-12(18)6-10(17)7-15(16)21-14/h2-8,17-18H,1H3

>  <standard_inchi_key>  (8) 
DANYIYRPLHHOCZ-UHFFFAOYSA-N

>  <name>  (8) 
acacetin

>  <iupac_name>  (8) 
5,7-dihydroxy-2-(4-methoxyphenyl)chromen-4-one

>  <annotation_level>  (8) 
5

>  <total_atom_count>  (8) 
33

>  <heavy_atom_count>  (8) 
21

>  <molecular_weight>  (8) 
284.27

>  <exact_molecular_weight>  (8) 
284.06847

>  <molecular_formula>  (8) 
C16H12O5

>  <alogp>  (8) 
2.88

>  <topological_polar_surface_area>  (8) 
79.90

>  <rotatable_bond_count>  (8) 
2

>  <hydrogen_bond_acceptors>  (8) 
5

>  <hydrogen_bond_donors>  (8) 
2

>  <hydrogen_bond_acceptors_lipinski>  (8) 
5

>  <hydrogen_bond_donors_lipinski>  (8) 
2

>  <lipinski_rule_of_five_violations>  (8) 
0

>  <aromatic_rings_count>  (8) 
3

>  <qed_drug_likeliness>  (8) 
0.76

>  <formal_charge>  (8) 
0

>  <fractioncsp3>  (8) 
0.06

>  <number_of_minimal_rings>  (8) 
3

>  <van_der_walls_volume>  (8) 
239.22

>  <contains_sugar>  (8) 
False

>  <contains_ring_sugars>  (8) 
False

>  <contains_linear_sugars>  (8) 
False

>  <murcko_framework>  (8) 
O1c2ccccc2CC=C1c3ccccc3

>  <np_likeness>  (8) 
1.12

>  <chemical_class>  (8) 
Flavonoids

>  <chemical_sub_class>  (8) 
O-methylated flavonoids

>  <chemical_super_class>  (8) 
Phenylpropanoids and polyketides

>  <direct_parent_classification>  (8) 
4'-O-methylated flavonoids

>  <np_classifier_pathway>  (8) 
Shikimates and Phenylpropanoids

>  <np_classifier_superclass>  (8) 
Flavonoids

>  <np_classifier_class>  (8) 
Flavones

>  <np_classifier_is_glycoside>  (8) 
False

>  <organisms>  (8) 
Acrocarpia paniculata|Adenia globosa|Afrocarpus gracilior|Agastache rugosa|Agastache rugosus|Agave xylonacantha|Aglaia grandis|Agrostophyllum brevipes|Ajuga forrestii|Alangium ridleyi|Amaranthus hypochondriacus|Amphilophis odorata|Amsonia grandiflora|Anaphalis araneosa|Anaxagorea prinoides|Anoda cristata|Anodendron affine|Anthemis cretica|Antiphiona pinnatisecta|Apis mellifera|Apis mellifera ligustica|Aplysia vaccaria|Aquilaria sinensis|Arctotheca calendula|Aria rostellata|Artemisia afra|Artemisia kurramensis|Artemisia minor|Artemisia pontica|Artemisia vestita|Asphodeline globifera|Asphodelus tenuifolius|Berberis repens|Bhesa nitidissima|Biebersteinia orphanidis|Bjerkandera adusta|Boletus bovinus|Boswellia carterii|Breea segeta|Buddleja officinalis|Calea urticifolia|Callicarpa pilosissima|Calophyllum inophyllum|Calycanthus floridus|Carcinus maenas|Catunaregam tomentosa|Cedrela salvadorensis|Cereus stellatus|Choriaster granulatus|Chrysanthemum indicum|Chrysanthemum leucanthemum|Chrysanthemum morifolium|Chrysanthemum sinense|Chrysanthemum x morifolium|Chrysanthemum zawadskii|Chrysothamnus nauseosus|Cirsium japonicum|Cirsium setosum|Cis punctifer|Citrus wilsonii|Clathria basilana|Colletotrichum gloeosporioides|Combretum caffrum|Coprinopsis atramentaria|Crematogaster brevis|Crotalaria laburnifolia|Croton laccifer|Cyphus niveus|Danae racemosa|Daphniphyllum calycinum|Deltocyathus magnificus|Dendrilla cavernosa|Dendrobates truncatus|Dendroctonus frontalis|Desmodium styracifolium|Dioscorea gracillima|Diphasiastrum thyoides|Echium rubrum|Eichhornia crassipes|Elaeagnus orientalis|Elsholtzia bodinieri|Elsholtzia ciliata|Enicosanthum cupulare|Entada africana|Entada polystachya|Episcia cupreata|Eremophila georgei|Eucryphia|Eupatorium hookerianum|Eupatorium tinifolium|Euphorbia myrsinites|Fagara naranjillo|Foeniculum vulgare|Fomes robiniae|Fructus leonuri|Fuligo candida|Fumaria indica|Garcinia cambogia|Garcinia nervosa|Ginkgo biloba|Glechoma grandis|Glechoma longituba|Gymnothorax javanicus|Hazunta membranacea|Hedysarum denticulatum|Helichrysum nitens|Helicoverpa armigera|Helicteres angustifolia|Hendersonula toruloidea|Herba cirsii japonici|Herba seu radix cirsii japonici|Hertia cheirifolia|Hippeastrum papilio|Humulus lupulus|Hydrocotyle ranunculoides|Hygrophorus chrysodon|Hypericum aucheri|Hypericum hirsutum|Iberis sempervirens|Impatiens edgeworthii|Indigofera tetrantha|Iostephane madrensis|Ipomoea pes-caprae|Ips confusus|Isodon sculponeatus|Jasonia candicans|Laurencia composita|Laurencia decumbens|Leucas aspera|Leuconostoc mesenteroides|Licaria chrysophylla|Ligularia songarica|Limnocharis flava|Liriodendron tulipifera|Lycium barbarum|Lycium chinense|Lycopodium japonicum|Lygodium japonicum|Lysimachia paridiformis|Maackia tashiroi|Madia citrigracilis|Melampodium argophyllum|Melanothamnus afaqhusainii|Meloidogyne incognita|Menisporopsis theobromae|Mentha aquatica|Mentha arvensis|Mentha canadensis|Mentha longifolia|Millettia ferruginea|Monomeria barbata|Mosla chinensis|Nuxia sphaerocephala|Ocimum americanum L.var.pilosum (Willd.) Paton|Ocimum basilicum L.|Ocimum x citriodorum Vis.|Ormosia hosiei|Ornithoglossum viride|Ostrya japonica|Othonna sedifolia|Ozothamnus obcordatus|Panzerina lanata|Parnassius phoebus|Pertusaria truncata|Petasites laevigatus|Phlomoides rotata|Plagiocheilus prostratus|Platycladus orientalis|Plectranthus nummularius|Pocillopora eydouxi|Podocarpus fasciculus|Pogostemon cablin|Polypodium decumanum|Polyporus dryadeus|Pseudocyclosorus subochthodes|Pseudostellaria heterophylla|Pseuduvaria indochinensis|Psydrax livida|Ptarmica ptarmicifolia|Pteraster multipes|Pteris setuloso-costulata|Pterocarpus officinalis|Puccinia coronata|Quercus pedunculata|Radix cirsii japonici|Radix pseudostellariae|Ranzania japonica|Retiboletus ornatipes|Rhabdonia verticillata|Robinia pseudoacacia|Roemeria carica|Rothmannia wittii|Rubia tetragona|Salvia nicolsoniana|Salvia yosgadensis|Satureja odora|Schizanthus tricolor|Schumanniophyton magnificum|Scoparia dulcis|Scoparia dulcis L.|Scutellaria baicalensis|Sedum litoreum|Senecio nemorensis|Senecio viscosus|Sphaeranthus confertifolius|Spongia officinalis|Streptomyces bobili|Streptomyces coeruleorubidus|Streptomyces tsukubensis|Streptomyces vinaceusdrappus|Tasmannia lanceolata|Tetrapanax papyrifer|Teucrium asiaticum|Thermopsis dolichocarpa|Thiocystis gelatinosa|Tolypothrix tenuis|Turnera diffusa|Urceolaria scruposa|Valeriana chionophila|Valeriana fedtschenkoi|Verbascum lychnites|Vernonia fruticulosa|Vernonia lanuginosa|Vicia amurensis|Vitex limonifolia|Vitex polygama|Wyethia mollis|Xylosalsola arbuscula|Zanthoxylum fraxineum|Zanthoxylum myriacanthum

>  <collections>  (8) 
ANPDB|AfroDB|AfroMalariaDB|Australian natural products|BIOFACQUIM|CMAUP (cCollective molecular activities of useful plants)|ChEBI NPs|ConMedNP|ETM (Ethiopian Traditional Medicine) DB|FooDB|GNPS (Global Natural Products Social Molecular Networking)|HIM (Herbal Ingredients in-vivo Metabolism database)|HIT (Herbal Ingredients Targets)|InPACdb|KNApSaCK|Latin America dataset|Mitishamba database|NANPDB (Natural Products from Northern African Sources)|NPACT|NPASS|NPCARE|NPEdia|NuBBEDB|Phyto4Health|PubChem NPs|ReSpect|SANCDB|Super Natural II|TCMDB-Taiwan (Traditional Chinese Medicine database)|TCMID (Traditional Chinese Medicine Integrated Database)|TIPdb (database of Taiwan indigenous plants)|UEFS (Natural Products Databse of the UEFS)|UNPD (Universal Natural Products Database)|VietHerb|ZINC NP

>  <dois>  (8) 
10.1016/j.bcp.2003.09.042|10.1016/j.bcp.2006.07.039|10.1016/j.bmc.2009.02.050|10.1016/j.bse.2017.10.002|10.1016/j.canlet.2004.02.019|10.1016/j.jep.2014.11.052|10.1016/s0031-9422(00)95261-0|10.1016/s0305-1978(99)00045-9|10.1021/acs.jnatprod.6b00440|10.1021/acs.jnatprod.9b00697|10.1021/jf048430m|10.1021/np50051a008|10.1021/np800721f|10.1021/np990092+|10.1093/carcin/bgi014|10.1093/pcp/pcn183|10.1515/znc-2003-3-401|10.1515/znc-2008-5-611

>  <synonyms>  (8) 
480-44-4|Linarigenin|5|7-Dihydroxy-4'-methoxyflavone|Buddleoflavonol|Acacetine|4'-Methoxyapigenin|5|7-Dihydroxy-2-(4-methoxyphenyl)-4H-chromen-4-one|Apigenin 4'-methyl ether|Akatsetin|4H-1-BENZOPYRAN-4-ONE| 5|7-DIHYDROXY-2-(4-METHOXYPHENYL)-|NSC 76061|Flavone| 5|7-dihydroxy-4'-methoxy-|ACAETIN|4'-O-Methylapigenin|NSC-76061|KWI7J0A2CC|5|7-Dihydroxy-2-(4-methoxyphenyl)-4-benzopyrone|4'-Methoxy-5|7-dihydroxyflavone|MLS002693970|CHEMBL243664|CHEBI:15335|MFCD00016936|SMR001233299|SR-01000841189|EINECS 207-552-3|UNII-KWI7J0A2CC|BRN 0277879|Acaceztin|Acacetin?|Prestwick_49|5|7-Dihydroxy-4|Kinome_3212|Spectrum_000135|ACACETIN MI|Prestwick0_000695|Spectrum5_000930|Acacetin| analytical standard|BSPBio_000849|KBioSS_000595|SPECTRUM200499|5-18-04-00575 (Beilstein Handbook Reference)|MLS002153960|DivK1c_000878|SCHEMBL107712|SPBio_002770|BPBio1_000935|BCBcMAP01_000082|BDBM23415|HMS502L20|KBio1_000878|KBio2_000595|KBio2_003163|KBio2_005731|APIGENIN-4'-METHYL ETHER|DTXSID00197383|NINDS_000878|HMS1570K11|HMS1922P12|HMS2097K11|HMS2234J17|HMS3374F03|Acacetin| >=97.0% (HPLC)|BCP15815|HY-N0451|LMPK12110468|s5318|AKOS015903365|CCG-208517|CS-5336|IDI1_000878|SMP1_000001|NCGC00016458-01|NCGC00095213-01|NCGC00179402-01|1ST15637|AC-33976|AS-70345|CAS-480-44-4|WLN: T66 BO EVJ CR DO1& GQ IQ|DB-051509|NS00031752|C01470|Q2822213|BRD-K77685744-001-03-6|2-(4-Methoxyphenyl)-5|7-dihydroxy-4H-1-benzopyran-4-one|4H-1-Benzopyran-4-one|7-dihydroxy-2-(4-methoxyphenyl)-|BE7185D3-6331-4E84-8C8E-5D10E505E37A|Acacetin 7-diglucoside|acacetin

>  <cas>  (8) 
480-44-4

$$$$

     RDKit          2D

 29 33  0  0  0  0  0  0  0  0999 V2000
   -7.3459   -2.4251    0.0000 C   0  0  0  0  0  0  0  0  0  0  0  0
   -7.2591   -0.9276    0.0000 C   0  0  0  0  0  0  0  0  0  0  0  0
   -8.5126   -0.1037    0.0000 C   0  0  0  0  0  0  0  0  0  0  0  0
   -5.9189   -0.2540    0.0000 C   0  0  0  0  0  0  0  0  0  0  0  0
   -4.5861   -0.9423    0.0000 C   0  0  0  0  0  0  0  0  0  0  0  0
   -3.5196    0.1125    0.0000 C   0  0  0  0  0  0  0  0  0  0  0  0
   -4.1932    1.4527    0.0000 C   0  0  0  0  0  0  0  0  0  0  0  0
   -3.3693    2.7062    0.0000 C   0  0  0  0  0  0  0  0  0  0  0  0
   -1.8718    2.6194    0.0000 C   0  0  0  0  0  0  0  0  0  0  0  0
   -1.1982    1.2792    0.0000 C   0  0  0  0  0  0  0  0  0  0  0  0
   -2.0221    0.0257    0.0000 C   0  0  0  0  0  0  0  0  0  0  0  0
   -1.3485   -1.3146    0.0000 O   0  0  0  0  0  0  0  0  0  0  0  0
    0.1490   -1.4013    0.0000 C   0  0  0  0  0  0  0  0  0  0  0  0
    0.8226   -2.7416    0.0000 C   0  0  0  0  0  0  0  0  0  0  0  0
    2.3200   -2.8283    0.0000 O   0  0  0  0  0  0  0  0  0  0  0  0
    3.1439   -1.5749    0.0000 C   0  0  0  0  0  0  0  0  0  0  0  0
    4.6414   -1.6616    0.0000 C   0  0  0  0  0  0  0  0  0  0  0  0
    5.4653   -0.4081    0.0000 C   0  0  0  0  0  0  0  0  0  0  0  0
    6.9628   -0.4949    0.0000 O   0  0  0  0  0  0  0  0  0  0  0  0
    7.6364   -1.8352    0.0000 C   0  0  0  0  0  0  0  0  0  0  0  0
    4.7917    0.9321    0.0000 C   0  0  0  0  0  0  0  0  0  0  0  0
    5.6156    2.1856    0.0000 O   0  0  0  0  0  0  0  0  0  0  0  0
    7.1131    2.0988    0.0000 C   0  0  0  0  0  0  0  0  0  0  0  0
    3.2942    1.0189    0.0000 C   0  0  0  0  0  0  0  0  0  0  0  0
    2.4703   -0.2346    0.0000 C   0  0  0  0  0  0  0  0  0  0  0  0
    0.9728   -0.1478    0.0000 C   0  0  0  0  0  0  0  0  0  0  0  0
    0.2992    1.1924    0.0000 C   0  0  0  0  0  0  0  0  0  0  0  0
    1.1231    2.4459    0.0000 O   0  0  0  0  0  0  0  0  0  0  0  0
   -5.6760    1.2262    0.0000 O   0  0  0  0  0  0  0  0  0  0  0  0
  1  2  2  0
  2  3  1  0
  4  2  1  1
  4  5  1  0
  5  6  1  0
  6  7  2  0
  7  8  1  0
  8  9  2  0
  9 10  1  0
 10 11  2  0
 11 12  1  0
 12 13  1  0
 13 14  1  6
 14 15  1  0
 15 16  1  0
 16 17  2  0
 17 18  1  0
 18 19  1  0
 19 20  1  0
 18 21  2  0
 21 22  1  0
 22 23  1  0
 21 24  1  0
 24 25  2  0
 25 26  1  0
 26 27  1  6
 27 28  2  0
  7 29  1  0
 29  4  1  0
 11  6  1  0
 26 13  1  0
 27 10  1  0
 25 16  1  0
M  END
>  <identifier>  (9) 
CNP0370102.1

>  <canonical_smiles>  (9) 
C=C(C)[C@@H]1CC2=C(C=CC3=C2O[C@H]2COC4=CC(OC)=C(OC)C=C4[C@H]2C3=O)O1

>  <standard_inchi>  (9) 
InChI=1S/C23H22O6/c1-11(2)16-8-14-15(28-16)6-5-12-22(24)21-13-7-18(25-3)19(26-4)9-17(13)27-10-20(21)29-23(12)14/h5-7,9,16,20-21H,1,8,10H2,2-4H3/t16-,20-,21+/m0/s1

>  <standard_inchi_key>  (9) 
JUVIOZPCNVVQFO-ORYQWCPZSA-N

>  <name>  (9) 
(1)Benzopyrano(3,4-b)furo(2,3-h)(1)benzopyran-6(6aH)-one, 1,2,12,12a-tetrahydro-8,9-dimethoxy-2-(1-methylethenyl)-, (2S-(2alpha,6aalpha,12aalpha))-

>  <iupac_name>  (9) 
(1~{R},6~{S},13~{R})-6-isopropenyl-16,17-dimethoxy-2,7,20-trioxapentacyclo[11.8.0.0^{3,11}.0^{4,8}.0^{14,19}]henicosa-3(11),4(8),9,14,16,18-hexaen-12-one

>  <annotation_level>  (9) 
5

>  <total_atom_count>  (9) 
51

>  <heavy_atom_count>  (9) 
29

>  <molecular_weight>  (9) 
394.42

>  <exact_molecular_weight>  (9) 
394.14164

>  <molecular_formula>  (9) 
C23H22O6

>  <alogp>  (9) 
3.70

>  <topological_polar_surface_area>  (9) 
63.22

>  <rotatable_bond_count>  (9) 
3

>  <hydrogen_bond_acceptors>  (9) 
6

>  <hydrogen_bond_donors>  (9) 
0

>  <hydrogen_bond_acceptors_lipinski>  (9) 
6

>  <hydrogen_bond_donors_lipinski>  (9) 
0

>  <lipinski_rule_of_five_violations>  (9) 
0

>  <aromatic_rings_count>  (9) 
2

>  <qed_drug_likeliness>  (9) 
0.74

>  <formal_charge>  (9) 
0

>  <fractioncsp3>  (9) 
0.35

>  <number_of_minimal_rings>  (9) 
5

>  <van_der_walls_volume>  (9) 
345.69

>  <contains_sugar>  (9) 
False

>  <contains_ring_sugars>  (9) 
False

>  <contains_linear_sugars>  (9) 
False

>  <murcko_framework>  (9) 
O1c2ccc3c(OC4COc5ccccc5C4C3)c2CC1

>  <np_likeness>  (9) 
1.84

>  <chemical_class>  (9) 
Isoflavonoids

>  <chemical_sub_class>  (9) 
Rotenoids

>  <chemical_super_class>  (9) 
Phenylpropanoids and polyketides

>  <direct_parent_classification>  (9) 
Rotenones

>  <np_classifier_pathway>  (9) 
Shikimates and Phenylpropanoids

>  <np_classifier_superclass>  (9) 
Isoflavonoids

>  <np_classifier_class>  (9) 
Rotenoids

>  <np_classifier_is_glycoside>  (9) 
False

>  <organisms>  (9) 
Derris elliptica|Derris trifoliata|Millettia pachycarpa|Pachyrhizus erosus|Tephrosia purpurea

>  <collections>  (9) 
BIOFACQUIM|CMAUP (cCollective molecular activities of useful plants)|HIT (Herbal Ingredients Targets)|Latin America dataset|NPASS|Super Natural II|TCMDB-Taiwan (Traditional Chinese Medicine database)|ZINC NP

>  <dois>  (9) 
10.1080/14786419.2014.939081

>  <synonyms>  (9) 
54141-69-4|Rotenone

>  <cas>  (9) 
54141-69-4

$$$$

     RDKit          2D

 25 29  0  0  0  0  0  0  0  0999 V2000
    1.5651    3.8678    0.0000 C   0  0  0  0  0  0  0  0  0  0  0  0
    1.1800    2.4181    0.0000 O   0  0  0  0  0  0  0  0  0  0  0  0
    2.2429    1.3597    0.0000 C   0  0  0  0  0  0  0  0  0  0  0  0
    3.6910    1.7511    0.0000 C   0  0  0  0  0  0  0  0  0  0  0  0
    4.7539    0.6927    0.0000 C   0  0  0  0  0  0  0  0  0  0  0  0
    4.3688   -0.7570    0.0000 C   0  0  0  0  0  0  0  0  0  0  0  0
    2.9208   -1.1484    0.0000 C   0  0  0  0  0  0  0  0  0  0  0  0
    1.8578   -0.0900    0.0000 C   0  0  0  0  0  0  0  0  0  0  0  0
    0.4098   -0.4813    0.0000 C   0  0  0  0  0  0  0  0  0  0  0  0
   -0.6532    0.5770    0.0000 C   0  0  0  0  0  0  0  0  0  0  0  0
   -2.1012    0.1857    0.0000 C   0  0  0  0  0  0  0  0  0  0  0  0
   -3.1642    1.2441    0.0000 C   0  0  0  0  0  0  0  0  0  0  0  0
   -4.6122    0.8527    0.0000 C   0  0  0  0  0  0  0  0  0  0  0  0
   -4.9973   -0.5970    0.0000 C   0  0  0  0  0  0  0  0  0  0  0  0
   -3.9344   -1.6554    0.0000 C   0  0  0  0  0  0  0  0  0  0  0  0
   -2.4863   -1.2640    0.0000 C   0  0  0  0  0  0  0  0  0  0  0  0
   -1.4234   -2.3224    0.0000 O   0  0  0  0  0  0  0  0  0  0  0  0
    0.0247   -1.9311    0.0000 C   0  0  0  0  0  0  0  0  0  0  0  0
    1.0876   -2.9894    0.0000 O   0  0  0  0  0  0  0  0  0  0  0  0
   -6.4951   -0.6787    0.0000 O   0  0  0  0  0  0  0  0  0  0  0  0
   -7.0357    0.7205    0.0000 C   0  0  0  0  0  0  0  0  0  0  0  0
   -5.8720    1.6670    0.0000 C   0  0  0  0  0  0  0  0  0  0  0  0
    5.6286   -1.5713    0.0000 O   0  0  0  0  0  0  0  0  0  0  0  0
    6.7923   -0.6248    0.0000 C   0  0  0  0  0  0  0  0  0  0  0  0
    6.2517    0.7744    0.0000 O   0  0  0  0  0  0  0  0  0  0  0  0
  1  2  1  0
  2  3  1  0
  3  4  2  0
  4  5  1  0
  5  6  2  0
  6  7  1  0
  7  8  2  0
  8  9  1  0
  9 10  2  0
 10 11  1  0
 11 12  2  0
 12 13  1  0
 13 14  2  0
 14 15  1  0
 15 16  2  0
 16 17  1  0
 17 18  1  0
 18 19  2  0
 14 20  1  0
 20 21  1  0
 21 22  2  0
  6 23  1  0
 23 24  1  0
 24 25  1  0
  8  3  1  0
 18  9  1  0
 25  5  1  0
 16 11  1  0
 22 13  1  0
M  END
>  <identifier>  (10) 
CNP0333434.0

>  <canonical_smiles>  (10) 
COC1=CC2=C(C=C1C1=CC3=CC4=C(C=C3OC1=O)OC=C4)OCO2

>  <standard_inchi>  (10) 
InChI=1S/C19H12O6/c1-21-16-8-18-17(23-9-24-18)6-12(16)13-5-11-4-10-2-3-22-14(10)7-15(11)25-19(13)20/h2-8H,9H2,1H3

>  <standard_inchi_key>  (10) 
PENSQRMNZZWMGV-UHFFFAOYSA-N

>  <name>  (10) 
Pachyrrhizin

>  <iupac_name>  (10) 
6-(6-methoxy-1,3-benzodioxol-5-yl)furo[3,2-g]chromen-7-one

>  <annotation_level>  (10) 
5

>  <total_atom_count>  (10) 
37

>  <heavy_atom_count>  (10) 
25

>  <molecular_weight>  (10) 
336.3

>  <exact_molecular_weight>  (10) 
336.06339

>  <molecular_formula>  (10) 
C19H12O6

>  <alogp>  (10) 
3.94

>  <topological_polar_surface_area>  (10) 
71.04

>  <rotatable_bond_count>  (10) 
2

>  <hydrogen_bond_acceptors>  (10) 
6

>  <hydrogen_bond_donors>  (10) 
0

>  <hydrogen_bond_acceptors_lipinski>  (10) 
6

>  <hydrogen_bond_donors_lipinski>  (10) 
0

>  <lipinski_rule_of_five_violations>  (10) 
0

>  <aromatic_rings_count>  (10) 
4

>  <qed_drug_likeliness>  (10) 
0.52

>  <formal_charge>  (10) 
0

>  <fractioncsp3>  (10) 
0.11

>  <number_of_minimal_rings>  (10) 
5

>  <van_der_walls_volume>  (10) 
272.90

>  <contains_sugar>  (10) 
False

>  <contains_ring_sugars>  (10) 
False

>  <contains_linear_sugars>  (10) 
False

>  <murcko_framework>  (10) 
o1ccc2cc3C=C(c4ccc5OCOc5c4)COc3cc12

>  <np_likeness>  (10) 
0.73

>  <chemical_class>  (10) 
Isoflavonoids

>  <chemical_sub_class>  (10) 
Isoflav-3-enes

>  <chemical_super_class>  (10) 
Phenylpropanoids and polyketides

>  <direct_parent_classification>  (10) 
Isoflav-3-enones

>  <np_classifier_pathway>  (10) 
Shikimates and Phenylpropanoids

>  <np_classifier_superclass>  (10) 
Coumarins

>  <np_classifier_class>  (10) 
Furocoumarins

>  <np_classifier_is_glycoside>  (10) 
False

>  <organisms>  (10) 
Agastache rugosus|Begonia glabra|Neorautanenia amboensis|Neorautanenia edulis|Neorautanenia mitis|Neorautanenia pseudopachyrrhiza|Pachyrhizus erosus|Pachyrhizus tuberosus|Pachyrrhizus erosus|Pogostemon cablin|Solanum pubescens|Tephrosia purpurea

>  <collections>  (10) 
ANPDB|AfroCancer|AfroDB|Australian natural products|BIOFACQUIM|CMAUP (cCollective molecular activities of useful plants)|FooDB|KNApSaCK|Latin America dataset|NANPDB (Natural Products from Northern African Sources)|NPASS|NPEdia|Super Natural II|TCMDB-Taiwan (Traditional Chinese Medicine database)|TCMID (Traditional Chinese Medicine Integrated Database)|UNPD (Universal Natural Products Database)

>  <dois>  (10) 
10.1016/j.trstmh.2003.10.008|10.1021/np058070c|10.1080/14786419.2014.939081

>  <synonyms>  (10) 
Neorautone|10091-01-7|Pachyrhizin|6-(6-methoxy-1|3-benzodioxol-5-yl)furo3|2-gchromen-7-one|3F597EPM0S|7H-Furo(3|2-g)(1)benzopyran-7-one| 6-(6-methoxy-1|3-benzodioxol-5-yl)-|NSC-404570|6-(6-Methoxy-1|3-benzodioxol-5-yl)-7H-furo(3|2-g)(1)benzopyran-7-one|pachyrrizine|Spectrum_001845|SpecPlus_000199|Spectrum2_000410|Spectrum3_000875|Spectrum4_000715|Spectrum5_000921|UNII-3F597EPM0S|BSPBio_002549|KBioGR_001269|KBioSS_002355|SPECTRUM201602|DivK1c_006295|SPBio_000340|CHEMBL479689|SCHEMBL12062103|KBio1_001239|KBio2_002352|KBio2_004920|KBio2_007488|KBio3_002049|DTXSID10143573|PACHYRRHIZIN (PACHYRHIZUS)|CHEBI:108580|HMS1923A15|CCG-38676|LMPK12160013|SDCCGMLS-0066383.P001|NCGC00095223-01|NCGC00178606-01|SR-05000002599|6-(2-Methoxy-4|5-methylenedioxyphenyl)furocoumarin|7H-Furo3| 6-(6-methoxy-1|3-benzodioxol-5-yl)-|BRD-K02070226-001-02-0|Q27187505|6-(2-Methoxy-4|5-methylenedioxyphenyl)-7H-furo3|2-g1benzopyran-7-one|6-(6-methoxy-1|3-benzodioxol-5-yl)-7-furo3|2-g1benzopyranone|5-BENZOFURANACRYLIC ACID| 6-HYDROXY-.ALPHA.-(2-METHOXY-4|5-(METHYLENEDIOXY)PHENYL)-| .DELTA.-LACTONE

>  <cas>  (10) 
10091-01-7

$$$$

     RDKit          2D

 25 30  0  0  0  0  0  0  0  0999 V2000
    0.0362    1.9570    0.0000 O   0  0  0  0  0  0  0  0  0  0  0  0
   -0.4882    0.5517    0.0000 C   0  0  0  0  0  0  0  0  0  0  0  0
   -1.9674    0.3031    0.0000 C   0  0  0  0  0  0  0  0  0  0  0  0
   -2.9223    1.4599    0.0000 C   0  0  0  0  0  0  0  0  0  0  0  0
   -4.4016    1.2113    0.0000 C   0  0  0  0  0  0  0  0  0  0  0  0
   -4.9260   -0.1940    0.0000 C   0  0  0  0  0  0  0  0  0  0  0  0
   -3.9711   -1.3508    0.0000 C   0  0  0  0  0  0  0  0  0  0  0  0
   -2.4918   -1.1023    0.0000 C   0  0  0  0  0  0  0  0  0  0  0  0
   -1.5369   -2.2591    0.0000 O   0  0  0  0  0  0  0  0  0  0  0  0
   -0.0576   -2.0105    0.0000 C   0  0  0  0  0  0  0  0  0  0  0  0
    0.8972   -3.1673    0.0000 C   0  0  0  0  0  0  0  0  0  0  0  0
    2.3765   -2.9187    0.0000 O   0  0  0  0  0  0  0  0  0  0  0  0
    2.9009   -1.5134    0.0000 C   0  0  0  0  0  0  0  0  0  0  0  0
    4.3801   -1.2648    0.0000 C   0  0  0  0  0  0  0  0  0  0  0  0
    4.9045    0.1405    0.0000 C   0  0  0  0  0  0  0  0  0  0  0  0
    3.9496    1.2973    0.0000 C   0  0  0  0  0  0  0  0  0  0  0  0
    2.4704    1.0488    0.0000 C   0  0  0  0  0  0  0  0  0  0  0  0
    1.9460   -0.3566    0.0000 C   0  0  0  0  0  0  0  0  0  0  0  0
    0.4667   -0.6051    0.0000 C   0  0  0  0  0  0  0  0  0  0  0  0
    4.7547    2.5630    0.0000 O   0  0  0  0  0  0  0  0  0  0  0  0
    6.2072    2.1884    0.0000 C   0  0  0  0  0  0  0  0  0  0  0  0
    6.2998    0.6912    0.0000 O   0  0  0  0  0  0  0  0  0  0  0  0
   -6.4246   -0.1296    0.0000 O   0  0  0  0  0  0  0  0  0  0  0  0
   -6.8264    1.3156    0.0000 C   0  0  0  0  0  0  0  0  0  0  0  0
   -5.5761    2.1443    0.0000 C   0  0  0  0  0  0  0  0  0  0  0  0
  1  2  2  0
  2  3  1  0
  3  4  2  0
  4  5  1  0
  5  6  2  0
  6  7  1  0
  7  8  2  0
  8  9  1  0
  9 10  1  0
 10 11  1  6
 11 12  1  0
 12 13  1  0
 13 14  2  0
 14 15  1  0
 15 16  2  0
 16 17  1  0
 17 18  2  0
 18 19  1  0
 16 20  1  0
 20 21  1  0
 21 22  1  0
  6 23  1  0
 23 24  1  0
 24 25  2  0
 19  2  1  6
  8  3  1  0
 19 10  1  0
 25  5  1  0
 18 13  1  0
 22 15  1  0
M  END
>  <identifier>  (11) 
CNP0176704.1

>  <canonical_smiles>  (11) 
O=C1C2=CC3=C(C=C2O[C@H]2COC4=CC5=C(C=C4[C@@H]12)OCO5)OC=C3

>  <standard_inchi>  (11) 
InChI=1S/C19H12O6/c20-19-11-3-9-1-2-21-12(9)5-14(11)25-17-7-22-13-6-16-15(23-8-24-16)4-10(13)18(17)19/h1-6,17-18H,7-8H2/t17-,18+/m0/s1

>  <standard_inchi_key>  (11) 
RAJDDCCSNZAPCH-ZWKOTPCHSA-N

>  <name>  (11) 
(1R,13R)-5,7,11,14,18-pentaoxahexacyclo[11.11.0.0²,¹⁰.0⁴,⁸.0¹⁵,²³.0¹⁷,²¹]tetracosa-2(10),3,8,15,17(21),19,22-heptaen-24-one

>  <iupac_name>  (11) 
(1~{R},13~{R})-5,7,11,14,18-pentaoxahexacyclo[11.11.0.0^{2,10}.0^{4,8}.0^{15,23}.0^{17,21}]tetracosa-2,4(8),9,15,17(21),19,22-heptaen-24-one

>  <annotation_level>  (11) 
5

>  <total_atom_count>  (11) 
37

>  <heavy_atom_count>  (11) 
25

>  <molecular_weight>  (11) 
336.3

>  <exact_molecular_weight>  (11) 
336.06339

>  <molecular_formula>  (11) 
C19H12O6

>  <alogp>  (11) 
3.28

>  <topological_polar_surface_area>  (11) 
67.13

>  <rotatable_bond_count>  (11) 
0

>  <hydrogen_bond_acceptors>  (11) 
6

>  <hydrogen_bond_donors>  (11) 
0

>  <hydrogen_bond_acceptors_lipinski>  (11) 
6

>  <hydrogen_bond_donors_lipinski>  (11) 
0

>  <lipinski_rule_of_five_violations>  (11) 
0

>  <aromatic_rings_count>  (11) 
3

>  <qed_drug_likeliness>  (11) 
0.63

>  <formal_charge>  (11) 
0

>  <fractioncsp3>  (11) 
0.21

>  <number_of_minimal_rings>  (11) 
6

>  <van_der_walls_volume>  (11) 
269.31

>  <contains_sugar>  (11) 
False

>  <contains_ring_sugars>  (11) 
False

>  <contains_linear_sugars>  (11) 
False

>  <murcko_framework>  (11) 
o1ccc2cc3c(OC4COc5cc6OCOc6cc5C4C3)cc12

>  <np_likeness>  (11) 
1.77

>  <chemical_class>  (11) 
Isoflavonoids

>  <chemical_sub_class>  (11) 
Rotenoids

>  <chemical_super_class>  (11) 
Phenylpropanoids and polyketides

>  <direct_parent_classification>  (11) 
Rotenones

>  <np_classifier_pathway>  (11) 
Shikimates and Phenylpropanoids

>  <np_classifier_superclass>  (11) 
Isoflavonoids

>  <np_classifier_class>  (11) 
Rotenoids

>  <np_classifier_is_glycoside>  (11) 
False

>  <organisms>  (11) 
Neorautanenia mitis|Neorautanenia pseudopachyrrhiza|Pachyrhizus erosus|Pachyrhizus tuberosus|Pachyrrhizus erosus

>  <collections>  (11) 
BIOFACQUIM|KNApSaCK|Latin America dataset

>  <dois>  (11) 
10.1080/14786419.2014.939081

>  <synonyms>  (11) 
SCHEMBL20138474|Dolineone

>  <cas>  (11) 
nan

$$$$

     RDKit          2D

 12 12  0  0  0  0  0  0  0  0999 V2000
   -3.6555    1.1442    0.0000 C   0  0  0  0  0  0  0  0  0  0  0  0
   -2.8129   -0.0968    0.0000 N   0  0  0  0  0  0  0  0  0  0  0  0
   -1.3169    0.0124    0.0000 C   0  0  0  0  0  0  0  0  0  0  0  0
   -0.6635    1.3626    0.0000 C   0  0  0  0  0  0  0  0  0  0  0  0
    0.8326    1.4718    0.0000 C   0  0  0  0  0  0  0  0  0  0  0  0
    1.4860    2.8220    0.0000 O   0  0  0  0  0  0  0  0  0  0  0  0
    1.6751    0.2308    0.0000 C   0  0  0  0  0  0  0  0  0  0  0  0
    3.1712    0.3400    0.0000 O   0  0  0  0  0  0  0  0  0  0  0  0
    1.0217   -1.1194    0.0000 C   0  0  0  0  0  0  0  0  0  0  0  0
    1.8643   -2.3604    0.0000 C   0  0  0  0  0  0  0  0  0  0  0  0
   -0.4743   -1.2286    0.0000 C   0  0  0  0  0  0  0  0  0  0  0  0
   -1.1277   -2.5788    0.0000 O   0  0  0  0  0  0  0  0  0  0  0  0
  1  2  1  0
  2  3  1  0
  3  4  2  0
  4  5  1  0
  5  6  2  0
  5  7  1  0
  7  8  1  0
  7  9  2  0
  9 10  1  0
  9 11  1  0
 11 12  2  0
 11  3  1  0
M  END
>  <identifier>  (12) 
CNP0080303.0

>  <canonical_smiles>  (12) 
CNC1=CC(=O)C(O)=C(C)C1=O

>  <standard_inchi>  (12) 
InChI=1S/C8H9NO3/c1-4-7(11)5(9-2)3-6(10)8(4)12/h3,9,12H,1-2H3

>  <standard_inchi_key>  (12) 
ZGITUQPDWVLERE-UHFFFAOYSA-N

>  <name>  (12) 
2-hydroxy-3-methyl-5-(methylamino)cyclohexa-2 5-diene-1 4-dione

>  <iupac_name>  (12) 
2-hydroxy-3-methyl-5-(methylamino)-1,4-benzoquinone

>  <annotation_level>  (12) 
5

>  <total_atom_count>  (12) 
21

>  <heavy_atom_count>  (12) 
12

>  <molecular_weight>  (12) 
167.16

>  <exact_molecular_weight>  (12) 
167.05824

>  <molecular_formula>  (12) 
C8H9NO3

>  <alogp>  (12) 
0.07

>  <topological_polar_surface_area>  (12) 
66.40

>  <rotatable_bond_count>  (12) 
1

>  <hydrogen_bond_acceptors>  (12) 
4

>  <hydrogen_bond_donors>  (12) 
2

>  <hydrogen_bond_acceptors_lipinski>  (12) 
4

>  <hydrogen_bond_donors_lipinski>  (12) 
2

>  <lipinski_rule_of_five_violations>  (12) 
0

>  <aromatic_rings_count>  (12) 
0

>  <qed_drug_likeliness>  (12) 
0.54

>  <formal_charge>  (12) 
0

>  <fractioncsp3>  (12) 
0.25

>  <number_of_minimal_rings>  (12) 
1

>  <van_der_walls_volume>  (12) 
150.51

>  <contains_sugar>  (12) 
False

>  <contains_ring_sugars>  (12) 
False

>  <contains_linear_sugars>  (12) 
False

>  <murcko_framework>  (12) 
C1=CCC=CC1

>  <np_likeness>  (12) 
2.17

>  <chemical_class>  (12) 
Organooxygen compounds

>  <chemical_sub_class>  (12) 
Carbonyl compounds

>  <chemical_super_class>  (12) 
Organic oxygen compounds

>  <direct_parent_classification>  (12) 
Quinones

>  <np_classifier_pathway>  (12) 
Polyketides

>  <np_classifier_superclass>  (12) 
Naphthalenes

>  <np_classifier_class>  (12) 
Naphthoquinones

>  <np_classifier_is_glycoside>  (12) 
False

>  <organisms>  (12) 
Xylaria feejeensis

>  <collections>  (12) 
BIOFACQUIM|Latin America dataset

>  <dois>  (12) 
10.1021/acs.jafc.6b01111

>  <synonyms>  (12) 
2-hydroxy-3-methyl-5-(methylamino)cyclohexa-2 5-diene-1 4-dione

>  <cas>  (12) 
nan

$$$$

     RDKit          2D

 28 33  0  0  0  0  0  0  0  0999 V2000
    5.8480    2.3585    0.0000 C   0  0  0  0  0  0  0  0  0  0  0  0
    4.3534    2.2314    0.0000 O   0  0  0  0  0  0  0  0  0  0  0  0
    3.7161    0.8735    0.0000 C   0  0  0  0  0  0  0  0  0  0  0  0
    2.2215    0.7464    0.0000 C   0  0  0  0  0  0  0  0  0  0  0  0
    1.3642    1.9772    0.0000 O   0  0  0  0  0  0  0  0  0  0  0  0
   -0.1304    1.8501    0.0000 C   0  0  0  0  0  0  0  0  0  0  0  0
   -0.9878    3.0810    0.0000 C   0  0  0  0  0  0  0  0  0  0  0  0
   -2.4824    2.9539    0.0000 O   0  0  0  0  0  0  0  0  0  0  0  0
   -3.1197    1.5960    0.0000 C   0  0  0  0  0  0  0  0  0  0  0  0
   -4.6143    1.4689    0.0000 C   0  0  0  0  0  0  0  0  0  0  0  0
   -5.2515    0.1110    0.0000 C   0  0  0  0  0  0  0  0  0  0  0  0
   -4.3941   -1.1199    0.0000 C   0  0  0  0  0  0  0  0  0  0  0  0
   -2.8995   -0.9928    0.0000 C   0  0  0  0  0  0  0  0  0  0  0  0
   -2.2623    0.3651    0.0000 C   0  0  0  0  0  0  0  0  0  0  0  0
   -0.7677    0.4922    0.0000 C   0  0  0  0  0  0  0  0  0  0  0  0
   -1.4049   -0.8657    0.0000 O   0  0  0  0  0  0  0  0  0  0  0  0
    0.0897   -0.7386    0.0000 C   0  0  0  0  0  0  0  0  0  0  0  0
   -0.5476   -2.0965    0.0000 O   0  0  0  0  0  0  0  0  0  0  0  0
    1.5843   -0.6115    0.0000 C   0  0  0  0  0  0  0  0  0  0  0  0
    2.4417   -1.8423    0.0000 C   0  0  0  0  0  0  0  0  0  0  0  0
    3.9363   -1.7152    0.0000 C   0  0  0  0  0  0  0  0  0  0  0  0
    4.5735   -0.3573    0.0000 C   0  0  0  0  0  0  0  0  0  0  0  0
    6.0619   -0.5438    0.0000 O   0  0  0  0  0  0  0  0  0  0  0  0
    6.3445   -2.0169    0.0000 C   0  0  0  0  0  0  0  0  0  0  0  0
    5.0308   -2.7409    0.0000 C   0  0  0  0  0  0  0  0  0  0  0  0
   -5.2998   -2.3156    0.0000 O   0  0  0  0  0  0  0  0  0  0  0  0
   -6.7169   -1.8238    0.0000 C   0  0  0  0  0  0  0  0  0  0  0  0
   -6.6870   -0.3241    0.0000 O   0  0  0  0  0  0  0  0  0  0  0  0
  1  2  1  0
  2  3  1  0
  3  4  2  0
  4  5  1  0
  5  6  1  0
  6  7  1  6
  7  8  1  0
  8  9  1  0
  9 10  2  0
 10 11  1  0
 11 12  2  0
 12 13  1  0
 13 14  2  0
 14 15  1  0
 15 16  1  6
 15 17  1  0
 17 18  2  0
 17 19  1  0
 19 20  2  0
 20 21  1  0
 21 22  2  0
 22 23  1  0
 23 24  1  0
 24 25  2  0
 12 26  1  0
 26 27  1  0
 27 28  1  0
 22  3  1  0
 19  4  1  0
 25 21  1  0
 15  6  1  0
 14  9  1  0
 28 11  1  0
M  END
>  <identifier>  (13) 
CNP0189013.1

>  <canonical_smiles>  (13) 
COC1=C2O[C@H]3COC4=CC5=C(C=C4[C@]3(O)C(=O)C2=CC2=C1OC=C2)OCO5

>  <standard_inchi>  (13) 
InChI=1S/C20H14O8/c1-23-18-16-9(2-3-24-16)4-10-17(18)28-15-7-25-12-6-14-13(26-8-27-14)5-11(12)20(15,22)19(10)21/h2-6,15,22H,7-8H2,1H3/t15-,20+/m0/s1

>  <standard_inchi_key>  (13) 
DDGYXSWHWAQNRQ-MGPUTAFESA-N

>  <name>  (13) 
nan

>  <iupac_name>  (13) 
(1~{R},13~{S})-1-hydroxy-16-methoxy-5,7,11,14,18-pentaoxahexacyclo[11.11.0.0^{2,10}.0^{4,8}.0^{15,23}.0^{17,21}]tetracosa-2,4(8),9,15,17(21),19,22-heptaen-24-one

>  <annotation_level>  (13) 
5

>  <total_atom_count>  (13) 
42

>  <heavy_atom_count>  (13) 
28

>  <molecular_weight>  (13) 
382.32

>  <exact_molecular_weight>  (13) 
382.06887

>  <molecular_formula>  (13) 
C20H14O8

>  <alogp>  (13) 
2.39

>  <topological_polar_surface_area>  (13) 
96.59

>  <rotatable_bond_count>  (13) 
1

>  <hydrogen_bond_acceptors>  (13) 
8

>  <hydrogen_bond_donors>  (13) 
1

>  <hydrogen_bond_acceptors_lipinski>  (13) 
8

>  <hydrogen_bond_donors_lipinski>  (13) 
1

>  <lipinski_rule_of_five_violations>  (13) 
0

>  <aromatic_rings_count>  (13) 
3

>  <qed_drug_likeliness>  (13) 
0.69

>  <formal_charge>  (13) 
0

>  <fractioncsp3>  (13) 
0.25

>  <number_of_minimal_rings>  (13) 
6

>  <van_der_walls_volume>  (13) 
302.38

>  <contains_sugar>  (13) 
False

>  <contains_ring_sugars>  (13) 
False

>  <contains_linear_sugars>  (13) 
False

>  <murcko_framework>  (13) 
o1ccc2cc3c(OC4COc5cc6OCOc6cc5C4C3)cc12

>  <np_likeness>  (13) 
2.12

>  <chemical_class>  (13) 
Isoflavonoids

>  <chemical_sub_class>  (13) 
Rotenoids

>  <chemical_super_class>  (13) 
Phenylpropanoids and polyketides

>  <direct_parent_classification>  (13) 
Rotenones

>  <np_classifier_pathway>  (13) 
Shikimates and Phenylpropanoids

>  <np_classifier_superclass>  (13) 
Isoflavonoids

>  <np_classifier_class>  (13) 
Rotenoids

>  <np_classifier_is_glycoside>  (13) 
False

>  <organisms>  (13) 
Pachyrhizus erosus

>  <collections>  (13) 
BIOFACQUIM|Latin America dataset|TCMDB-Taiwan (Traditional Chinese Medicine database)

>  <dois>  (13) 
10.1080/14786419.2014.939081

>  <synonyms>  (13) 
12a-hydroxypachyrhizone

>  <cas>  (13) 
nan

$$$$

     RDKit          2D

 22 24  0  0  0  0  0  0  0  0999 V2000
   -6.7653    1.9303    0.0000 C   0  0  0  0  0  0  0  0  0  0  0  0
   -6.1849    0.5472    0.0000 O   0  0  0  0  0  0  0  0  0  0  0  0
   -4.6968    0.3583    0.0000 C   0  0  0  0  0  0  0  0  0  0  0  0
   -3.7892    1.5525    0.0000 C   0  0  0  0  0  0  0  0  0  0  0  0
   -2.3011    1.3635    0.0000 C   0  0  0  0  0  0  0  0  0  0  0  0
   -1.7207   -0.0196    0.0000 C   0  0  0  0  0  0  0  0  0  0  0  0
   -0.2327   -0.2085    0.0000 C   0  0  0  0  0  0  0  0  0  0  0  0
    0.3477   -1.5917    0.0000 C   0  0  0  0  0  0  0  0  0  0  0  0
    1.8358   -1.7806    0.0000 C   0  0  0  0  0  0  0  0  0  0  0  0
    2.4162   -3.1638    0.0000 O   0  0  0  0  0  0  0  0  0  0  0  0
    2.7434   -0.5864    0.0000 C   0  0  0  0  0  0  0  0  0  0  0  0
    4.2315   -0.7753    0.0000 C   0  0  0  0  0  0  0  0  0  0  0  0
    4.8119   -2.1585    0.0000 O   0  0  0  0  0  0  0  0  0  0  0  0
    5.1391    0.4189    0.0000 C   0  0  0  0  0  0  0  0  0  0  0  0
    4.5587    1.8020    0.0000 C   0  0  0  0  0  0  0  0  0  0  0  0
    5.4664    2.9963    0.0000 O   0  0  0  0  0  0  0  0  0  0  0  0
    3.0707    1.9910    0.0000 C   0  0  0  0  0  0  0  0  0  0  0  0
    2.1630    0.7967    0.0000 C   0  0  0  0  0  0  0  0  0  0  0  0
    0.6750    0.9857    0.0000 O   0  0  0  0  0  0  0  0  0  0  0  0
   -2.6284   -1.2138    0.0000 C   0  0  0  0  0  0  0  0  0  0  0  0
   -4.1164   -1.0249    0.0000 C   0  0  0  0  0  0  0  0  0  0  0  0
   -5.0241   -2.2191    0.0000 O   0  0  0  0  0  0  0  0  0  0  0  0
  1  2  1  0
  2  3  1  0
  3  4  2  0
  4  5  1  0
  5  6  2  0
  6  7  1  0
  7  8  2  0
  8  9  1  0
  9 10  2  0
  9 11  1  0
 11 12  2  0
 12 13  1  0
 12 14  1  0
 14 15  2  0
 15 16  1  0
 15 17  1  0
 17 18  2  0
 18 19  1  0
  6 20  1  0
 20 21  2  0
 21 22  1  0
 21  3  1  0
 19  7  1  0
 18 11  1  0
M  END
>  <identifier>  (14) 
CNP0246782.0

>  <canonical_smiles>  (14) 
COC1=CC=C(C2=CC(=O)C3=C(O)C=C(O)C=C3O2)C=C1O

>  <standard_inchi>  (14) 
InChI=1S/C16H12O6/c1-21-13-3-2-8(4-10(13)18)14-7-12(20)16-11(19)5-9(17)6-15(16)22-14/h2-7,17-19H,1H3

>  <standard_inchi_key>  (14) 
MBNGWHIJMBWFHU-UHFFFAOYSA-N

>  <name>  (14) 
Diosmetin

>  <iupac_name>  (14) 
5,7-dihydroxy-2-(3-hydroxy-4-methoxy-phenyl)chromen-4-one

>  <annotation_level>  (14) 
5

>  <total_atom_count>  (14) 
34

>  <heavy_atom_count>  (14) 
22

>  <molecular_weight>  (14) 
300.27

>  <exact_molecular_weight>  (14) 
300.06339

>  <molecular_formula>  (14) 
C16H12O6

>  <alogp>  (14) 
2.59

>  <topological_polar_surface_area>  (14) 
100.13

>  <rotatable_bond_count>  (14) 
2

>  <hydrogen_bond_acceptors>  (14) 
6

>  <hydrogen_bond_donors>  (14) 
3

>  <hydrogen_bond_acceptors_lipinski>  (14) 
6

>  <hydrogen_bond_donors_lipinski>  (14) 
3

>  <lipinski_rule_of_five_violations>  (14) 
0

>  <aromatic_rings_count>  (14) 
3

>  <qed_drug_likeliness>  (14) 
0.67

>  <formal_charge>  (14) 
0

>  <fractioncsp3>  (14) 
0.06

>  <number_of_minimal_rings>  (14) 
3

>  <van_der_walls_volume>  (14) 
247.86

>  <contains_sugar>  (14) 
False

>  <contains_ring_sugars>  (14) 
False

>  <contains_linear_sugars>  (14) 
False

>  <murcko_framework>  (14) 
O1c2ccccc2CC=C1c3ccccc3

>  <np_likeness>  (14) 
1.34

>  <chemical_class>  (14) 
Flavonoids

>  <chemical_sub_class>  (14) 
O-methylated flavonoids

>  <chemical_super_class>  (14) 
Phenylpropanoids and polyketides

>  <direct_parent_classification>  (14) 
4'-O-methylated flavonoids

>  <np_classifier_pathway>  (14) 
Shikimates and Phenylpropanoids

>  <np_classifier_superclass>  (14) 
Flavonoids

>  <np_classifier_class>  (14) 
Flavones

>  <np_classifier_is_glycoside>  (14) 
False

>  <organisms>  (14) 
Acacia farnesiana|Achillea collina|Aconitum brevicalcaratum|Actinobacillus pleuropneumoniae|Adenia globosa|Aeonium glutinosum|Agastache aurantiaca|Agastache rugosa|Aglaia grandis|Ammodendron conollyi|Amoora yunnanensis|Anaphalis araneosa|Annona rensoniana|Annulohypoxylon cohaerens|Anoda cristata|Arachniodes dimorphophylla|Aristolochia maxima|Arnica spp.|Artemisia anomala|Artemisia caerulescens|Artemisia iwayomogi|Artemisia kurramensis|Artemisia molinieri|Artemisia vachanica|Asparagus africanus|Aspergillus albus|Atroxima liberica|Bergenia crassifolia|Bergenia purpurascens|Betula mandshurica|Bhesa nitidissima|Bischofia trifoliata|Breea segeta|Brickellia laciniata|Calycanthus floridus|Camellia sinensis|Caragana tibetica|Catunaregam tomentosa|Christisonia bicolor|Chrysanthemum indicum|Chrysanthemum sinense|Chrysanthemum x morifolium|Chrysolina fastuosa|Cirsium dipsacolepis|Cirsium japonicum|Cirsium setosum|Cis punctifer|Citrus limon|Citrus wilsonii|Cnidium monieri|Cnidium monnieri|Cocculus diversifolius|Colletotrichum gloeosporioides|Convallaria majalis|Coprinopsis atramentaria|Cotoneaster orbicularis|Crataegus sinaica|Crinum kirkii|Crotalaria orixensis|Croton rhamnifolius|Cryptotaenia japonica|Cyperus alopecuroides|Cyperus haspan|Cytisus scoparius|Daiswa polyphylla|Derris eriocarpa|Desmodium styracifolium|Diosma spp.|Discaria crenata|Dolichospermum affine|Dubautia arborea|Eclipta prostrata|Elsholtzia ciliata|Episcia cupreata|Eria subsessilis|Ericerus pela|Eupatorium altissimum|Euphorbia ferganensis|Froelichia floridana|Fucus spiralis|Ganoderma australe|Gardenia jasminoides|Ginkgo biloba|Goniothalamus thwaitesii|Halichondria melanadocia|Hansenia forbesii|Hansenia weberbaueriana|Herba cirsii japonici|Herba seu radix cirsii japonici|Hypericum triquetrifolium|Hypolytrum nemorum|Impatiens edgeworthii|Isodon japonicus|Isodon rubescens|Jasminum officinale|Jasonia candicans|Julocroton camporum|Kadsura interior|Knightia deplanchei|Lasiocephalus ovatus|Lawsonia inermis|Licaria brasiliensis|Ligularia platyglossa|Linum crispum|Lippia citriodora|Liriodendron tulipifera|Lobelia chinensis|Macrotyloma axillare|Malassezia furfur|Malus asiatica|Malva sylvestris|Mentha arvensis|Mentha canadensis|Mentha spicata|Merremia tridentata|Mesembryanthemum anatomicum|Mikania obtusata|Mola mola|Montrouziera sphaeroidea|Myrica multiflora|Nelumbo nucifera|Neocosmospora tenuicristata|Neodiprion sertifer|Nephroma antarcticum|Nerium oleander|Nonea rosea|Octopus vulgaris|Ophelia neglecta|Ophiarthrum elegans|Oreosolen wattii|Orobanche speciosa|Ostericum grosseserratum|Othonna sedifolia|Ozothamnus scutellifolius|Pachychalina alcaloidifera|Palafoxia texana|Parerythropodium fulvum|Paris polyphylla|Penstemon newberryi|Pentapora fascialis|Pentemon gentianoides HBK|Petalonia fascia|Petroselinum crispum|Phalium undulatum|Phoma violacea|Phomopsis archeri|Phyllospongia madagascarensis|Pimpinella saxifraga|Pithecellobium clypearia|Plantago lanceolata|Platytaenia lasiocarpa|Polygala myrtifolia|Pseudocinchona pachyceras|Pterocarpus officinalis|Ptilidium ciliare|Rabdosia angustifolia|Radix cirsii japonici|Ranzania japonica|Rapanea myricoides|Rhabdonia verticillata|Rhodiola krylovii|Rhynchosporium orthosporum|Rothmannia wittii|Salvia candidissima|Salvia nutans|Salvia pratensis|Salvia tomentosa|Salvinia imbricata|Sanguisorba officinalis|Sarcomelicope argyrophylla|Scabiosa comosa|Schefferomitra subaequalis|Schizonepeta tenuifolia|Schizonepeta tenuisfolia|Scutellaria seleriana|Scutellaria sieberi|Smilax bracteata|Solanum bahamense|Solanum chilense|Solanum racemigerum|Sophora viciifolia|Sophora vicllfolia|Stemodia viscosa|Streptomyces eurythermus|Streptomyces purpeofuscus|Taraxacum officinale|Teclea nobilis|Tenebrio obscurus|Tetrapanax papyrifer|Teucrium pestalozzae|Thorectandra excavatus|Thymus hirtus|Tinospora smilacina|Tithonia calva|Tolypothrix tenuis|Torilis japonica|Trichosanthes kirilowii|Trichosanthes rosthornii|Tridacna gigas|Trifolium apertum|Trigonostemon reidioides|Tripodanthus acutifolius|Tropaeolum speciosum|Tropiometra afra|Tynanthus panurensis|Valeriana laxiflora|Vatica diospyroides|Vernonia lanuginosa|Veronica pectinata|Verpa digitaliformis|Vicia hybrida|Vicia melanops|Vicia michauxii|Vicia noeana|Vicia pannonica|Vicia sicula|Vicia truncatu|Vicia villosa|Viguiera annua|Wallago attu|Xenia blumi|Zanthoxylum myriacanthum

>  <collections>  (14) 
ANPDB|Australian natural products|BIOFACQUIM|CMAUP (cCollective molecular activities of useful plants)|ChEBI NPs|DrugBankNP|FooDB|KNApSaCK|Latin America dataset|NANPDB (Natural Products from Northern African Sources)|NPASS|NPCARE|NPEdia|Phyto4Health|Super Natural II|TCMDB-Taiwan (Traditional Chinese Medicine database)|TCMID (Traditional Chinese Medicine Integrated Database)|TIPdb (database of Taiwan indigenous plants)|UEFS (Natural Products Databse of the UEFS)|UNPD (Universal Natural Products Database)|VietHerb

>  <dois>  (14) 
10.1016/0031-9422(94)00578-h|10.1016/j.jep.2014.11.052|10.1016/s0031-9422(00)84889-x

>  <synonyms>  (14) 
520-34-3|5|7-dihydroxy-2-(3-hydroxy-4-methoxyphenyl)-4H-chromen-4-one|Luteolin 4'-methyl ether|4'-Methylluteolin|Salinigricoflavonol|Diosmetine|Pillon|3'|5|7-trihydroxy-4'-methoxyflavone|5|7|3'-Trihydroxy-4'-methoxyflavone|UNII-TWZ37241OT|4H-1-Benzopyran-4-one| 5|7-dihydroxy-2-(3-hydroxy-4-methoxyphenyl)-|5|7-Dihydroxy-2-(3-hydroxy-4-methoxyphenyl)-4-benzopyrone|DIOSMETOL|CHEBI:4630|TWZ37241OT|HSDB 8101|EINECS 208-291-8|MFCD00017425|Flavone| 3'|5|7-trihydroxy-4'-methoxy-|LUTEOLIN-4'-METHYL ETHER|DTXSID80199966|CYANIDENON-4'-METHYL ETHER 1479|SR-05000002196|5|7-Dihydroxy-2-(3-hydroxy-4-methoxyphenyl)-4H-1-benzopyran-4-one (Diosmetin)|Spectrum_001505|SpecPlus_000435|DIOSMETIN MI|DIOSMETIN INCI|Spectrum2_001638|Spectrum3_000987|Spectrum4_001113|Spectrum5_001707|DIOSMETIN WHO-DD|BSPBio_002653|KBioGR_001586|KBioSS_001985|MLS006011843|CHEMBL90568|Diosmetin| analytical standard|DivK1c_006531|SCHEMBL289337|SPBio_001735|BDBM23414|KBio1_001475|KBio2_001985|KBio2_004553|KBio2_007121|KBio3_001873|DTXCID40122457|HMS3656G13|BCP28283|HY-N0125|BBL027839|CCG-38758|Diosmetin (Luteolin 4-methyl ether)|LMPK12110824|s2380|STL146390|AKOS005720974|CS-5455|DB11259|SDCCGMLS-0066783.P001|NCGC00163540-01|NCGC00178549-01|AC-34868|BS-17174|SMR002044787|SY066981|DB-050154|D4441|NS00014641|SW219332-1|Whoo Gongjinhyang Seol Whitening Jin Essence|ISAKNOX X202 WHITENING SECRET ESSENCE|C10038|A828902|A871094|ISA KNOX WXII PLUS WHITENING REVOLUTION SERUM|Q1649664|BRD-K26862302-001-02-9|2-(4-methoxy-3-oxidanyl-phenyl)-5|7-bis(oxidanyl)chromen-4-one|J8D|diosmetin

>  <cas>  (14) 
520-34-3

$$$$

     RDKit          2D

 25 27  0  0  0  0  0  0  0  0999 V2000
   -7.0757    2.3205    0.0000 C   0  0  0  0  0  0  0  0  0  0  0  0
   -6.5363    0.9209    0.0000 O   0  0  0  0  0  0  0  0  0  0  0  0
   -5.0544    0.6882    0.0000 C   0  0  0  0  0  0  0  0  0  0  0  0
   -4.1120    1.8553    0.0000 C   0  0  0  0  0  0  0  0  0  0  0  0
   -2.6302    1.6226    0.0000 C   0  0  0  0  0  0  0  0  0  0  0  0
   -2.0907    0.2230    0.0000 C   0  0  0  0  0  0  0  0  0  0  0  0
   -0.6089   -0.0096    0.0000 C   0  0  0  0  0  0  0  0  0  0  0  0
   -0.0694   -1.4092    0.0000 C   0  0  0  0  0  0  0  0  0  0  0  0
    1.4125   -1.6419    0.0000 C   0  0  0  0  0  0  0  0  0  0  0  0
    1.9519   -3.0415    0.0000 O   0  0  0  0  0  0  0  0  0  0  0  0
    2.3548   -0.4749    0.0000 C   0  0  0  0  0  0  0  0  0  0  0  0
    3.8367   -0.7075    0.0000 C   0  0  0  0  0  0  0  0  0  0  0  0
    4.3762   -2.1071    0.0000 O   0  0  0  0  0  0  0  0  0  0  0  0
    4.7791    0.4595    0.0000 C   0  0  0  0  0  0  0  0  0  0  0  0
    6.2609    0.2269    0.0000 O   0  0  0  0  0  0  0  0  0  0  0  0
    6.8004   -1.1727    0.0000 C   0  0  0  0  0  0  0  0  0  0  0  0
    4.2396    1.8592    0.0000 C   0  0  0  0  0  0  0  0  0  0  0  0
    5.1820    3.0262    0.0000 O   0  0  0  0  0  0  0  0  0  0  0  0
    2.7578    2.0918    0.0000 C   0  0  0  0  0  0  0  0  0  0  0  0
    1.8154    0.9248    0.0000 C   0  0  0  0  0  0  0  0  0  0  0  0
    0.3335    1.1574    0.0000 O   0  0  0  0  0  0  0  0  0  0  0  0
   -3.0331   -0.9440    0.0000 C   0  0  0  0  0  0  0  0  0  0  0  0
   -4.5149   -0.7114    0.0000 C   0  0  0  0  0  0  0  0  0  0  0  0
   -5.4573   -1.8784    0.0000 O   0  0  0  0  0  0  0  0  0  0  0  0
   -4.9179   -3.2780    0.0000 C   0  0  0  0  0  0  0  0  0  0  0  0
  1  2  1  0
  2  3  1  0
  3  4  2  0
  4  5  1  0
  5  6  2  0
  6  7  1  0
  7  8  2  0
  8  9  1  0
  9 10  2  0
  9 11  1  0
 11 12  2  0
 12 13  1  0
 12 14  1  0
 14 15  1  0
 15 16  1  0
 14 17  2  0
 17 18  1  0
 17 19  1  0
 19 20  2  0
 20 21  1  0
  6 22  1  0
 22 23  2  0
 23 24  1  0
 24 25  1  0
 23  3  1  0
 21  7  1  0
 20 11  1  0
M  END
>  <identifier>  (15) 
CNP0156199.0

>  <canonical_smiles>  (15) 
COC1=CC=C(C2=CC(=O)C3=C(O)C(OC)=C(O)C=C3O2)C=C1OC

>  <standard_inchi>  (15) 
InChI=1S/C18H16O7/c1-22-12-5-4-9(6-14(12)23-2)13-7-10(19)16-15(25-13)8-11(20)18(24-3)17(16)21/h4-8,20-21H,1-3H3

>  <standard_inchi_key>  (15) 
DRRWBCNQOKKKOL-UHFFFAOYSA-N

>  <name>  (15) 
Eupatilin

>  <iupac_name>  (15) 
2-(3,4-dimethoxyphenyl)-5,7-dihydroxy-6-methoxy-chromen-4-one

>  <annotation_level>  (15) 
5

>  <total_atom_count>  (15) 
41

>  <heavy_atom_count>  (15) 
25

>  <molecular_weight>  (15) 
344.32

>  <exact_molecular_weight>  (15) 
344.0896

>  <molecular_formula>  (15) 
C18H16O7

>  <alogp>  (15) 
2.90

>  <topological_polar_surface_area>  (15) 
98.36

>  <rotatable_bond_count>  (15) 
4

>  <hydrogen_bond_acceptors>  (15) 
7

>  <hydrogen_bond_donors>  (15) 
2

>  <hydrogen_bond_acceptors_lipinski>  (15) 
7

>  <hydrogen_bond_donors_lipinski>  (15) 
2

>  <lipinski_rule_of_five_violations>  (15) 
0

>  <aromatic_rings_count>  (15) 
3

>  <qed_drug_likeliness>  (15) 
0.75

>  <formal_charge>  (15) 
0

>  <fractioncsp3>  (15) 
0.17

>  <number_of_minimal_rings>  (15) 
3

>  <van_der_walls_volume>  (15) 
290.26

>  <contains_sugar>  (15) 
False

>  <contains_ring_sugars>  (15) 
False

>  <contains_linear_sugars>  (15) 
False

>  <murcko_framework>  (15) 
O1c2ccccc2CC=C1c3ccccc3

>  <np_likeness>  (15) 
1.17

>  <chemical_class>  (15) 
Flavonoids

>  <chemical_sub_class>  (15) 
O-methylated flavonoids

>  <chemical_super_class>  (15) 
Phenylpropanoids and polyketides

>  <direct_parent_classification>  (15) 
6-O-methylated flavonoids

>  <np_classifier_pathway>  (15) 
Shikimates and Phenylpropanoids

>  <np_classifier_superclass>  (15) 
Flavonoids

>  <np_classifier_class>  (15) 
Flavones

>  <np_classifier_is_glycoside>  (15) 
False

>  <organisms>  (15) 
Aceriphyllum rossii|Actinopyga lecanora|Agnorhiza bolanderi|Alligator mississippiensis|Anaxagorea clavata|Araujia sericifera|Aria pallescens|Arnica nevadensis|Artemisia anomala|Artemisia argyi|Artemisia giraldii|Artemisia judaica|Artemisia ludoviciana|Artemisia ludoviciana var. mexicana|Artemisia mongolica|Artemisia monogyna|Artemisia montana|Artemisia nitida|Artemisia oliveriana|Artemisia porrecta|Artemisia princeps|Artemisia rubripes|Artemisia umbelliformis|Artemisia verlotiorum|Asteraceae|Baccharis gaudichaudiana|Baccharis gaudichaudiana DC|Bassia butyracea|Bellis perennis|Beyeria brevifolia|Bursaria spinosa|Chloranthus tianmushanensis|Chromolaena odorata|Chromolaena pulchella|Chrysanthemum indicum|Chrysanthemum x morifolium|Citrus reticulata|Citrus reticulate|Cladonia evansii|Clonostachys rosea|Coccus fagi|Dendrosenecio kilimanjari|Dioscorea japonica|Dipterocarpus alatus|Drosera peltata|Echinops amplexicaulis|Epaltes gariepina|Eriocephalus punctulatus|Eupatorium capillifolium|Eupatorium japonicum|Eupatorium semiserratum|Ficus formosana|Fusarium gibbosum|Gardenia fosbergii|Glaucium vitellinum|Helianthus mollis|Hypericum henryi|Ilex affinis|Inula britannica|Isodon kameba|Kaempferia pulchra|Lactarius scrobiculatus|Monoclea gottschei|Odixia angusta|Ononis vaginalis|Othonna coronopifolia|Pandanus amaryllifolius|Perovskia atriplicifolia|Pheidole pallidula|Polysiphonia urceolata|Prosopis glandulosa|Prunus laurocerasus|Pseudopterogorgia kallos|Pteris prolifera|Pterocarpus grandiflorus|Pyrosoma giganteum|Quercus aegilops|Rhizobium phaseoli|Salvia cardiophylla|Salvia mellifera|Salvia officinalis|Salvia palaestina|Salvia sclarea|Salvia tomentosa|Securidaca inappendiculata|Senecio squalidus|Seriphidium cinum|Sesbania punicea|Sideritis gomeraea|Sideritis tomentosa|Simira eliezeriana|Sium lineare|Stachys glutinosa|Stenostomum lucidum|Streptomyces althioticus|Tanacetum polycephalum|Tanacetum vulgare|Taxodium mucronatum|Taxus chienii|Teucrium lancifolium|Thymus godayanus|Vitex madiensis|Wallemia sebi|Werneria nubigena

>  <collections>  (15) 
ANPDB|AnalytiCon Discovery NPs|Australian natural products|BIOFACQUIM|CMAUP (cCollective molecular activities of useful plants)|ChEBI NPs|FooDB|HIT (Herbal Ingredients Targets)|InflamNat|KNApSaCK|Latin America dataset|NANPDB (Natural Products from Northern African Sources)|NPASS|NPCARE|NPEdia|Phyto4Health|Super Natural II|TCMDB-Taiwan (Traditional Chinese Medicine database)|TCMID (Traditional Chinese Medicine Integrated Database)|TIPdb (database of Taiwan indigenous plants)|UNPD (Universal Natural Products Database)|VietHerb

>  <dois>  (15) 
10.1016/0031-9422(88)80467-9|10.1016/S0031-9422(00)84593-8|10.1016/j.jep.2009.06.001|10.1016/j.jep.2014.05.051

>  <synonyms>  (15) 
22368-21-4|Euptailin|2-(3|4-dimethoxyphenyl)-5|7-dihydroxy-6-methoxychromen-4-one|5|7-Dihydroxy-3'|4'|6-trimethoxyflavone|CHEBI:4932|NSC-122413|CHEMBL312750|MFCD13194819|4D58O05490|Eupatilin?|UNII-4D58O05490|EUPATILIN WHO-DD|SCHEMBL1033509|Eupatilin| >=98% (HPLC)|DTXSID30176904|BCP09703|EX-A7726|HY-N0783|BDBM50060926|HB3894|LMPK12111228|s3846|SC3971|AKOS015917432|AC-7926|AM84796|CCG-267966|CS-5407|4-Hydroxy-3-ethoxy-5-nitrobenzaldehyde|AS-56084|SY231676|1ST158705|DB-329211|E1409|NS00116298|4-(2-METHACRYLOXY-ETHYL-1-OXY)BENZOICACID|A878565|Q3060385|4H-1-Benzopyran-4-one| 2-(3|4-dimethoxyphenyl)-5|7-dihydroxy-6-methoxy-|2-(3|4-Dimethoxyphenyl)-5|7-dihydroxy-6-methoxy-4H-1-benzopyran-4-one| 9CI|2-(3|4-Dimethoxyphenyl)-5|7-dihydroxy-6-methoxy-4H-1-benzopyran-4-one; 5|7-Dihydroxy-3'|4'|6-trimethoxyflavone; 2-(3|4-Dimethoxyphenyl)-5|7-dihydroxy-6-methoxychromen-4-one; 4H-1-Benzopyran-4-one| 2-(3|4-diMethoxyphenyl)-5|7-dihydroxy-6-Methoxy-|Eupatilin2-(3|4-dimethoxyphenyl)-5|7-dihydroxy-6-methoxychromen-4-one; 5|7-Dihydroxy-3'|4'|6-trimethoxyflavone|Asteraceae|eupatilin

>  <cas>  (15) 
22368-21-4

$$$$

     RDKit          2D

 24 26  0  0  0  0  0  0  0  0999 V2000
   -4.6383    3.3269    0.0000 C   0  0  0  0  0  0  0  0  0  0  0  0
   -5.3953    2.0319    0.0000 O   0  0  0  0  0  0  0  0  0  0  0  0
   -4.6524    0.7289    0.0000 C   0  0  0  0  0  0  0  0  0  0  0  0
   -3.1524    0.7207    0.0000 C   0  0  0  0  0  0  0  0  0  0  0  0
   -2.4094   -0.5823    0.0000 C   0  0  0  0  0  0  0  0  0  0  0  0
   -0.9095   -0.5905    0.0000 C   0  0  0  0  0  0  0  0  0  0  0  0
   -0.1665   -1.8936    0.0000 C   0  0  0  0  0  0  0  0  0  0  0  0
    1.3335   -1.9017    0.0000 C   0  0  0  0  0  0  0  0  0  0  0  0
    2.0764   -3.2048    0.0000 O   0  0  0  0  0  0  0  0  0  0  0  0
    2.0905   -0.6067    0.0000 C   0  0  0  0  0  0  0  0  0  0  0  0
    3.5905   -0.6149    0.0000 C   0  0  0  0  0  0  0  0  0  0  0  0
    4.3334   -1.9179    0.0000 O   0  0  0  0  0  0  0  0  0  0  0  0
    4.3475    0.6801    0.0000 C   0  0  0  0  0  0  0  0  0  0  0  0
    5.8475    0.6720    0.0000 O   0  0  0  0  0  0  0  0  0  0  0  0
    6.5904   -0.6311    0.0000 C   0  0  0  0  0  0  0  0  0  0  0  0
    3.6045    1.9832    0.0000 C   0  0  0  0  0  0  0  0  0  0  0  0
    4.3616    3.2781    0.0000 O   0  0  0  0  0  0  0  0  0  0  0  0
    2.1046    1.9913    0.0000 C   0  0  0  0  0  0  0  0  0  0  0  0
    1.3475    0.6964    0.0000 C   0  0  0  0  0  0  0  0  0  0  0  0
   -0.1524    0.7045    0.0000 O   0  0  0  0  0  0  0  0  0  0  0  0
   -3.1665   -1.8773    0.0000 C   0  0  0  0  0  0  0  0  0  0  0  0
   -4.6664   -1.8692    0.0000 C   0  0  0  0  0  0  0  0  0  0  0  0
   -5.4094   -0.5661    0.0000 C   0  0  0  0  0  0  0  0  0  0  0  0
   -6.9094   -0.5580    0.0000 O   0  0  0  0  0  0  0  0  0  0  0  0
  1  2  1  0
  2  3  1  0
  3  4  2  0
  4  5  1  0
  5  6  1  0
  6  7  2  0
  7  8  1  0
  8  9  2  0
  8 10  1  0
 10 11  2  0
 11 12  1  0
 11 13  1  0
 13 14  1  0
 14 15  1  0
 13 16  2  0
 16 17  1  0
 16 18  1  0
 18 19  2  0
 19 20  1  0
  5 21  2  0
 21 22  1  0
 22 23  2  0
 23 24  1  0
 23  3  1  0
 20  6  1  0
 19 10  1  0
M  END
>  <identifier>  (16) 
CNP0257120.0

>  <canonical_smiles>  (16) 
COC1=CC(C2=CC(=O)C3=C(O)C(OC)=C(O)C=C3O2)=CC=C1O

>  <standard_inchi>  (16) 
InChI=1S/C17H14O7/c1-22-13-5-8(3-4-9(13)18)12-6-10(19)15-14(24-12)7-11(20)17(23-2)16(15)21/h3-7,18,20-21H,1-2H3

>  <standard_inchi_key>  (16) 
GLAAQZFBFGEBPS-UHFFFAOYSA-N

>  <name>  (16) 
Jaceosidin

>  <iupac_name>  (16) 
5,7-dihydroxy-2-(4-hydroxy-3-methoxy-phenyl)-6-methoxy-chromen-4-one

>  <annotation_level>  (16) 
5

>  <total_atom_count>  (16) 
38

>  <heavy_atom_count>  (16) 
24

>  <molecular_weight>  (16) 
330.29

>  <exact_molecular_weight>  (16) 
330.07395

>  <molecular_formula>  (16) 
C17H14O7

>  <alogp>  (16) 
2.59

>  <topological_polar_surface_area>  (16) 
109.36

>  <rotatable_bond_count>  (16) 
3

>  <hydrogen_bond_acceptors>  (16) 
7

>  <hydrogen_bond_donors>  (16) 
3

>  <hydrogen_bond_acceptors_lipinski>  (16) 
7

>  <hydrogen_bond_donors_lipinski>  (16) 
3

>  <lipinski_rule_of_five_violations>  (16) 
0

>  <aromatic_rings_count>  (16) 
3

>  <qed_drug_likeliness>  (16) 
0.68

>  <formal_charge>  (16) 
0

>  <fractioncsp3>  (16) 
0.12

>  <number_of_minimal_rings>  (16) 
3

>  <van_der_walls_volume>  (16) 
274.03

>  <contains_sugar>  (16) 
False

>  <contains_ring_sugars>  (16) 
False

>  <contains_linear_sugars>  (16) 
False

>  <murcko_framework>  (16) 
O1c2ccccc2CC=C1c3ccccc3

>  <np_likeness>  (16) 
1.42

>  <chemical_class>  (16) 
Flavonoids

>  <chemical_sub_class>  (16) 
O-methylated flavonoids

>  <chemical_super_class>  (16) 
Phenylpropanoids and polyketides

>  <direct_parent_classification>  (16) 
6-O-methylated flavonoids

>  <np_classifier_pathway>  (16) 
Shikimates and Phenylpropanoids

>  <np_classifier_superclass>  (16) 
Flavonoids

>  <np_classifier_class>  (16) 
Flavones

>  <np_classifier_is_glycoside>  (16) 
False

>  <organisms>  (16) 
Aloysia triphylla|Alstonia pneumatophora|Artemisia anomala|Artemisia argyi|Artemisia asiatica|Artemisia copa|Artemisia iwayomogi|Artemisia ludoviciana|Artemisia montana|Artemisia princeps|Artemisia vestita|Asteraceae|Baccharis gaudichaudiana DC|Bombyx mori|Bracteantha viscosa|Centaurea arguta|Centaurea hierapolitana|Centaurea jacea|Centaurea sp.|Chaenomeles cathayensis|Chenopodium ambrosioides|Citrus sudachi|Cleome species|Climacostomum virens|Cortinarius infractus|Crepis pygmaea|Cribrochalina dura|Digitalis lanata|Digitalis schischkinii|Enicostema littorale|Eremophila microtheca|Eriocaulon buergerianum|Eriocaulon sieboldianum|Eupatorium capillifolium|Eupatorium lindleyanum|Fischerella muscicola|Gaylussacia frondosa|Helenium alternifolium|Helichrysum viscosum|Herba lagotidis|Leucaena leucocephala|Mangifera gabonensis|Mentha pulegium|Micromeria japonica|Mikania congesta|Monodora grandiflora|Muraltia heisteria|Peperomia villipetiola|Phyla nodiflora|Plummera ambigens|Podocarpus mannii|Polygonatum prattii|Pouteria sapota|Rhodopirellula baltica|Salvia tomentosa|Salvia triloba|Santalum album|Santolina chamaecyparissus|Saussurea involucrata|Selaginella apoda|Senecio microglossus|Siphocampylus foliosus|Tillandsia utriculata|Trichoderma roseum|Usnea aciculifera|Werneria stuebelii

>  <collections>  (16) 
ANPDB|Australian natural products|BIOFACQUIM|CMAUP (cCollective molecular activities of useful plants)|ChEBI NPs|EMNPD|FooDB|HIT (Herbal Ingredients Targets)|InflamNat|KNApSaCK|Latin America dataset|NANPDB (Natural Products from Northern African Sources)|NPASS|NPCARE|NPEdia|Phenol-explorer|Super Natural II|TCMDB-Taiwan (Traditional Chinese Medicine database)|TCMID (Traditional Chinese Medicine Integrated Database)|TIPdb (database of Taiwan indigenous plants)|UNPD (Universal Natural Products Database)|VietHerb|ZINC NP

>  <dois>  (16) 
10.1016/0031-9422(93)85293-z|10.1016/0305-1978(92)90084-Q|10.1016/j.intimp.2007.08.028|10.1016/j.jep.2009.06.001|10.1016/j.jep.2014.05.051|10.1016/j.phytochem.2013.02.021|10.1016/s0031-9422(00)82953-2|10.1021/acs.jnatprod.8b00791|10.1021/np50035a034|10.1055/s-2005-873177|10.1196/annals.1397.052

>  <synonyms>  (16) 
18085-97-7|5|7-Dihydroxy-2-(4-hydroxy-3-methoxyphenyl)-6-methoxy-4H-chromen-4-one|4H-1-Benzopyran-4-one| 5|7-dihydroxy-2-(4-hydroxy-3-methoxyphenyl)-6-methoxy-|CHEBI:66103|5U4Y68G678|5|7-dihydroxy-2-(4-hydroxy-3-methoxyphenyl)-6-methoxy-4H-1-Benzopyran-4-one|JACEOSIDINE|JASEOCIDIN|CHEMBL487601|SCHEMBL3960077|UNII-5U4Y68G678|BDBM84984|DTXSID00171022|GLAAQZFBFGEBPS-UHFFFAOYSA-N|BCP10203|EX-A7727|HY-N0831|LMPK12111235|MFCD01081948|SC3961|ZB1886|AKOS015917411|AC-7927|AS-73451|1ST158700|CS-0009862|NS00116337|S0931|Q-100215|FLAVONE| 4'|5|7-TRIHYDROXY-3'|6-DIMETHOXY-|Q27134618|B0005-464792|Jaceosidin4'|5|7-Trihydroxy-3'|6-dimethoxyflavone; CHEBI:66103; 4H-1-Benzopyran-4-one| 5|7-dihydroxy-2-(4-hydroxy-3-methoxyphenyl)-6-methoxy-|Jaceosidin|Asteraceae|5|7|4'-trihydroxy-6|3'-dimethoxyflavone

>  <cas>  (16) 
18085-97-7

$$$$

     RDKit          2D

 28 32  0  0  0  0  0  0  0  0999 V2000
   -8.0425    0.7265    0.0000 C   0  0  0  0  0  0  0  0  0  0  0  0
   -6.9497   -0.3009    0.0000 C   0  0  0  0  0  0  0  0  0  0  0  0
   -5.5134    0.1318    0.0000 C   0  0  0  0  0  0  0  0  0  0  0  0
   -4.4206   -0.8957    0.0000 C   0  0  0  0  0  0  0  0  0  0  0  0
   -2.9843   -0.4630    0.0000 C   0  0  0  0  0  0  0  0  0  0  0  0
   -2.4902    0.9533    0.0000 O   0  0  0  0  0  0  0  0  0  0  0  0
   -0.9906    0.9210    0.0000 C   0  0  0  0  0  0  0  0  0  0  0  0
   -0.0829    2.1152    0.0000 O   0  0  0  0  0  0  0  0  0  0  0  0
   -0.5579   -0.5153    0.0000 C   0  0  0  0  0  0  0  0  0  0  0  0
   -1.7901   -1.3706    0.0000 C   0  0  0  0  0  0  0  0  0  0  0  0
   -1.6654   -2.8654    0.0000 C   0  0  0  0  0  0  0  0  0  0  0  0
   -0.3086   -3.5049    0.0000 C   0  0  0  0  0  0  0  0  0  0  0  0
    0.9236   -2.6495    0.0000 C   0  0  0  0  0  0  0  0  0  0  0  0
    2.2805   -3.2890    0.0000 C   0  0  0  0  0  0  0  0  0  0  0  0
    3.5127   -2.4337    0.0000 C   0  0  0  0  0  0  0  0  0  0  0  0
    3.3881   -0.9389    0.0000 C   0  0  0  0  0  0  0  0  0  0  0  0
    4.4156    0.1540    0.0000 C   0  0  0  0  0  0  0  0  0  0  0  0
    5.9036   -0.0349    0.0000 O   0  0  0  0  0  0  0  0  0  0  0  0
    3.6937    1.4689    0.0000 O   0  0  0  0  0  0  0  0  0  0  0  0
    2.2201    1.1887    0.0000 C   0  0  0  0  0  0  0  0  0  0  0  0
    1.1273    2.2161    0.0000 C   0  0  0  0  0  0  0  0  0  0  0  0
    1.4707    3.6763    0.0000 C   0  0  0  0  0  0  0  0  0  0  0  0
    0.3778    4.7038    0.0000 C   0  0  0  0  0  0  0  0  0  0  0  0
    0.7212    6.1639    0.0000 C   0  0  0  0  0  0  0  0  0  0  0  0
    2.0312   -0.2994    0.0000 C   0  0  0  0  0  0  0  0  0  0  0  0
    1.4322   -1.4531    0.0000 C   0  0  0  0  0  0  0  0  0  0  0  0
    1.4987   -2.2504    0.0000 C   0  0  0  0  0  0  0  0  0  0  0  0
    0.7990   -1.1547    0.0000 C   0  0  0  0  0  0  0  0  0  0  0  0
  1  2  1  0
  2  3  1  0
  3  4  1  0
  4  5  2  0
  5  6  1  0
  6  7  1  0
  7  8  2  0
  7  9  1  0
  9 10  2  0
 10 11  1  0
 11 12  1  0
 13 12  1  6
 13 14  1  0
 14 15  1  0
 15 16  2  0
 16 17  1  0
 17 18  2  0
 17 19  1  0
 19 20  1  0
 20 21  2  0
 21 22  1  0
 22 23  1  0
 23 24  1  0
 25 20  1  1
 25 26  1  0
 26 27  1  0
 25 28  1  0
 10  5  1  0
 28 13  1  0
 28  9  1  6
 14 27  1  1
 25 16  1  0
M  END
>  <identifier>  (17) 
CNP0253547.1

>  <canonical_smiles>  (17) 
CCC/C=C1\OC(=O)C2=C1CC[C@H]1[C@H]3C=C4C(=O)O/C(=C\CCC)[C@@]4(CC3)[C@@H]21

>  <standard_inchi>  (17) 
InChI=1S/C24H28O4/c1-3-5-7-18-16-10-9-15-14-11-12-24(21(15)20(16)23(26)27-18)17(13-14)22(25)28-19(24)8-6-4-2/h7-8,13-15,21H,3-6,9-12H2,1-2H3/b18-7-,19-8-/t14-,15+,21-,24+/m1/s1

>  <standard_inchi_key>  (17) 
UBBRXVRQZJSDAK-ZJHGLIIDSA-N

>  <name>  (17) 
Levistilide A

>  <iupac_name>  (17) 
(1~{S},2~{S},6~{Z},10~{S},11~{S},16~{Z})-6,16-di(butylidene)-5,15-dioxapentacyclo[9.5.2.0^{1,13}.0^{2,10}.0^{3,7}]octadeca-3(7),12-diene-4,14-dione

>  <annotation_level>  (17) 
5

>  <total_atom_count>  (17) 
56

>  <heavy_atom_count>  (17) 
28

>  <molecular_weight>  (17) 
380.48

>  <exact_molecular_weight>  (17) 
380.19876

>  <molecular_formula>  (17) 
C24H28O4

>  <alogp>  (17) 
5.13

>  <topological_polar_surface_area>  (17) 
52.60

>  <rotatable_bond_count>  (17) 
4

>  <hydrogen_bond_acceptors>  (17) 
4

>  <hydrogen_bond_donors>  (17) 
0

>  <hydrogen_bond_acceptors_lipinski>  (17) 
4

>  <hydrogen_bond_donors_lipinski>  (17) 
0

>  <lipinski_rule_of_five_violations>  (17) 
1

>  <aromatic_rings_count>  (17) 
0

>  <qed_drug_likeliness>  (17) 
0.63

>  <formal_charge>  (17) 
0

>  <fractioncsp3>  (17) 
0.58

>  <number_of_minimal_rings>  (17) 
6

>  <van_der_walls_volume>  (17) 
356.50

>  <contains_sugar>  (17) 
False

>  <contains_ring_sugars>  (17) 
False

>  <contains_linear_sugars>  (17) 
False

>  <murcko_framework>  (17) 
O1CC2=C(C1)C3C(CC2)C4C=C5COCC53CC4

>  <np_likeness>  (17) 
3.57

>  <chemical_class>  (17) 
Dihydrofurans

>  <chemical_sub_class>  (17) 
Furanones

>  <chemical_super_class>  (17) 
Organoheterocyclic compounds

>  <direct_parent_classification>  (17) 
Butenolides

>  <np_classifier_pathway>  (17) 
Polyketides

>  <np_classifier_superclass>  (17) 
Cyclic polyketides

>  <np_classifier_class>  (17) 
Phthalide derivatives

>  <np_classifier_is_glycoside>  (17) 
False

>  <organisms>  (17) 
Angelica acutiloba|Angelica gigas|Angelica sinensis|Cnidium officinale|Ligusticum jeholense|Ligusticum porteri|Ligusticum sinense|Ligusticum tenuissimum|Umbelliferae

>  <collections>  (17) 
AnalytiCon Discovery NPs|BIOFACQUIM|CMAUP (cCollective molecular activities of useful plants)|ChEBI NPs|InflamNat|Latin America dataset|NPASS|Super Natural II|TCMDB-Taiwan (Traditional Chinese Medicine database)

>  <dois>  (17) 
10.1016/j.fitote.2013.08.013|10.1016/j.jep.2015.08.030|10.1021/np100447a

>  <synonyms>  (17) 
levistolide A|88182-33-6|Levistolid A|(Z|Z)-Diligustilide|Diligustilide|UNII-29MRT0H4CE|29MRT0H4CE|Z|Z'-6|6'|7|3'a-Diligustilide|1H-5|10c-Ethanonaphtho(1|2-c:7|8-c')difuran-3|10-dione| 1|8-dibutylidene-5|5a|6|7|8|10b-hexahydro-| (1Z|5S|5aS|8Z|10bS|10cs)-|(1S|2S|6Z|10S|11S|16Z)-6|16-di(butylidene)-5|15-dioxapentacyclo9.5.2.01|13.02|10.03|7octadeca-3(7)|12-diene-4|14-dione|Levistilide-A|Senkyunolide O|LEVISTOLIDE A INCI|(Z|Z)-di(butylidene)?dione|CHEBI:68231|DTXSID601317628|HY-N1472|s9201|AKOS037514718|CS-0016970|Q27136724|142797-35-1|Umbelliferae

>  <cas>  (17) 
88182-33-6|142797-35-1

$$$$

     RDKit          2D

 40 45  0  0  0  0  0  0  0  0999 V2000
    6.0938   -2.6781    0.0000 O   0  0  0  0  0  0  0  0  0  0  0  0
    5.5217   -1.2915    0.0000 C   0  0  0  0  0  0  0  0  0  0  0  0
    4.0348   -1.0937    0.0000 C   0  0  0  0  0  0  0  0  0  0  0  0
    3.4626    0.2929    0.0000 C   0  0  0  0  0  0  0  0  0  0  0  0
    1.9757    0.4907    0.0000 C   0  0  0  0  0  0  0  0  0  0  0  0
    1.4036    1.8773    0.0000 C   0  0  0  0  0  0  0  0  0  0  0  0
   -0.0833    2.0751    0.0000 C   0  0  0  0  0  0  0  0  0  0  0  0
   -0.9981    0.8863    0.0000 C   0  0  0  0  0  0  0  0  0  0  0  0
   -2.4850    1.0841    0.0000 O   0  0  0  0  0  0  0  0  0  0  0  0
   -0.4259   -0.5003    0.0000 C   0  0  0  0  0  0  0  0  0  0  0  0
   -1.3407   -1.6891    0.0000 C   0  0  0  0  0  0  0  0  0  0  0  0
   -0.7686   -3.0757    0.0000 C   0  0  0  0  0  0  0  0  0  0  0  0
    0.7183   -3.2735    0.0000 O   0  0  0  0  0  0  0  0  0  0  0  0
   -1.6833   -4.2645    0.0000 C   0  0  0  0  0  0  0  0  0  0  0  0
   -3.1702   -4.0667    0.0000 C   0  0  0  0  0  0  0  0  0  0  0  0
   -4.0850   -5.2555    0.0000 O   0  0  0  0  0  0  0  0  0  0  0  0
   -3.7424   -2.6801    0.0000 C   0  0  0  0  0  0  0  0  0  0  0  0
   -2.8276   -1.4913    0.0000 C   0  0  0  0  0  0  0  0  0  0  0  0
   -3.3997   -0.1047    0.0000 O   0  0  0  0  0  0  0  0  0  0  0  0
   -4.8866    0.0931    0.0000 C   0  0  0  0  0  0  0  0  0  0  0  0
   -5.4588    1.4797    0.0000 C   0  0  0  0  0  0  0  0  0  0  0  0
   -4.5440    2.6685    0.0000 C   0  0  0  0  0  0  0  0  0  0  0  0
   -5.1162    4.0551    0.0000 C   0  0  0  0  0  0  0  0  0  0  0  0
   -6.6031    4.2529    0.0000 C   0  0  0  0  0  0  0  0  0  0  0  0
   -7.1752    5.6395    0.0000 O   0  0  0  0  0  0  0  0  0  0  0  0
   -7.5178    3.0641    0.0000 C   0  0  0  0  0  0  0  0  0  0  0  0
   -6.9457    1.6775    0.0000 C   0  0  0  0  0  0  0  0  0  0  0  0
   -5.8014   -1.0957    0.0000 C   0  0  0  0  0  0  0  0  0  0  0  0
   -5.2293   -2.4823    0.0000 C   0  0  0  0  0  0  0  0  0  0  0  0
   -6.1440   -3.6710    0.0000 O   0  0  0  0  0  0  0  0  0  0  0  0
    1.0610   -0.6981    0.0000 C   0  0  0  0  0  0  0  0  0  0  0  0
    4.3774    1.4817    0.0000 O   0  0  0  0  0  0  0  0  0  0  0  0
    5.8643    1.2839    0.0000 C   0  0  0  0  0  0  0  0  0  0  0  0
    6.7790    2.4727    0.0000 C   0  0  0  0  0  0  0  0  0  0  0  0
    8.2659    2.2749    0.0000 C   0  0  0  0  0  0  0  0  0  0  0  0
    9.1807    3.4636    0.0000 O   0  0  0  0  0  0  0  0  0  0  0  0
    8.8381    0.8883    0.0000 C   0  0  0  0  0  0  0  0  0  0  0  0
    7.9233   -0.3005    0.0000 C   0  0  0  0  0  0  0  0  0  0  0  0
    8.4955   -1.6871    0.0000 O   0  0  0  0  0  0  0  0  0  0  0  0
    6.4364   -0.1027    0.0000 C   0  0  0  0  0  0  0  0  0  0  0  0
  1  2  2  0
  2  3  1  0
  3  4  2  0
  4  5  1  0
  5  6  2  0
  6  7  1  0
  7  8  2  0
  8  9  1  0
  8 10  1  0
 10 11  1  0
 11 12  2  0
 12 13  1  0
 12 14  1  0
 14 15  2  0
 15 16  1  0
 15 17  1  0
 17 18  2  0
 18 19  1  0
 19 20  1  0
 20 21  1  0
 21 22  2  0
 22 23  1  0
 23 24  2  0
 24 25  1  0
 24 26  1  0
 26 27  2  0
 20 28  2  0
 28 29  1  0
 29 30  2  0
 10 31  2  0
  4 32  1  0
 32 33  1  0
 33 34  2  0
 34 35  1  0
 35 36  1  0
 35 37  2  0
 37 38  1  0
 38 39  1  0
 38 40  2  0
 40  2  1  0
 31  5  1  0
 40 33  1  0
 18 11  1  0
 27 21  1  0
 29 17  1  0
M  END
>  <identifier>  (18) 
CNP0311925.0

>  <canonical_smiles>  (18) 
O=C1C=C(C2=CC=C(O)C(C3=C(O)C=C(O)C4=C3OC(C3=CC=C(O)C=C3)=CC4=O)=C2)OC2=CC(O)=CC(O)=C12

>  <standard_inchi>  (18) 
InChI=1S/C30H18O10/c31-15-4-1-13(2-5-15)24-12-23(38)29-21(36)10-20(35)27(30(29)40-24)17-7-14(3-6-18(17)33)25-11-22(37)28-19(34)8-16(32)9-26(28)39-25/h1-12,31-36H

>  <standard_inchi_key>  (18) 
YUSWMAULDXZHPY-UHFFFAOYSA-N

>  <name>  (18) 
Amentoflavone

>  <iupac_name>  (18) 
8-[5-(5,7-dihydroxy-4-oxo-chromen-2-yl)-2-hydroxy-phenyl]-5,7-dihydroxy-2-(4-hydroxyphenyl)chromen-4-one

>  <annotation_level>  (18) 
5

>  <total_atom_count>  (18) 
58

>  <heavy_atom_count>  (18) 
40

>  <molecular_weight>  (18) 
538.46

>  <exact_molecular_weight>  (18) 
538.09

>  <molecular_formula>  (18) 
C30H18O10

>  <alogp>  (18) 
5.13

>  <topological_polar_surface_area>  (18) 
181.80

>  <rotatable_bond_count>  (18) 
3

>  <hydrogen_bond_acceptors>  (18) 
10

>  <hydrogen_bond_donors>  (18) 
6

>  <hydrogen_bond_acceptors_lipinski>  (18) 
10

>  <hydrogen_bond_donors_lipinski>  (18) 
6

>  <lipinski_rule_of_five_violations>  (18) 
3

>  <aromatic_rings_count>  (18) 
6

>  <qed_drug_likeliness>  (18) 
0.18

>  <formal_charge>  (18) 
0

>  <fractioncsp3>  (18) 
0.00

>  <number_of_minimal_rings>  (18) 
6

>  <van_der_walls_volume>  (18) 
432.90

>  <contains_sugar>  (18) 
False

>  <contains_ring_sugars>  (18) 
False

>  <contains_linear_sugars>  (18) 
False

>  <murcko_framework>  (18) 
O1c2ccccc2CC=C1c3cccc(c3)-c4cccc5c4OC(=CC5)c6ccccc6

>  <np_likeness>  (18) 
1.23

>  <chemical_class>  (18) 
Flavonoids

>  <chemical_sub_class>  (18) 
Biflavonoids and polyflavonoids

>  <chemical_super_class>  (18) 
Phenylpropanoids and polyketides

>  <direct_parent_classification>  (18) 
Biflavonoids and polyflavonoids

>  <np_classifier_pathway>  (18) 
Shikimates and Phenylpropanoids

>  <np_classifier_superclass>  (18) 
Flavonoids

>  <np_classifier_class>  (18) 
Flavones

>  <np_classifier_is_glycoside>  (18) 
False

>  <organisms>  (18) 
Actinobacillus equuli|Agathis spp.|Aglaia forbesii|Albizia Julibrissin|Amentotaxus yunnanensis|Apocynum venetum|Araucaria cunninghamii|Araucaria spp.|Artabotrys hexapetalus|Biota orientalis|Brassica oleracea var. sabauda|Breonia chinensis|Buxus sempervirens|Calocedrus microlepic var. formosana|Calophyllum inophyllum|Calophyllum pinetorum|Caloplaca murorum|Campylotropis hirtella|Cephalotaxus fortunei|Ceropegia dichotoma|Chamaecyparis formosensis|Chrozophora tinctoria|Cissus rheifolia|Coprinellus heptemerus|Cremastra appendiculata|Crinum moorei|Crotalaria candicans|Cunninghamia lanceolata|Cupressus cashmeriana|Cupressus spp.|Cycas beddomei|Cycas revoluta|Cytisus uniflorus|Daniellia ogea|Dendrobium chrysotoxum|Dendrobium loddigesii|Dietes bicolor|Dioon spp.|Distephanus angulifolius|Ectatosoma tiaratum|Elateriospermum tapos|Eria japonica|Erucastrum gallicum|Etlingera elatior|Eucalyptus apodophylla|Eucalyptus globulus subsp. bicostata|Eurybia divaricata|Eusynstyela latericius|Garcinia livingstonei|Garcinia prainiana|Garcinia xanthochymus|Ginkgo biloba|Glycosmis macrophylla|Gypsophila perfoliata|Herba selaginellae doederleinii|Hydnocarpus hainanensis|Hymenoxys lemmoni|Hypericum perforatum|Hypericum polyanthemum|Juniperus drupacea|Juniperus occidentalis|Juniperus occidentalis HOOK.|Juniperus rigida|Juniperus spp.|Mammea siamensis|Martensia denticulata|Mentha cardiaca|Metasequoia glyptostroboides|Mycobacterium liflandii|Neatostema apulum|Ononis spinosa|Ouratea multiflora|Ouratea sulcata|Panax stipuleanatus|Passalora fulva|Patersonia fragilis|Pentaclethra macrophylla|Periploca sepium|Phyllosma capensis|Physocarpus capitatus|Pinus longifolia|Platycladus orientalis|Plectranthus myrianthus|Pleione bulbocodioides|Pleione yunnanensis|Podocarpus fasciculus|Podocarpus montanus|Podocarpus spp.|Polyporus ciliatus|Proustia ilicifolia|Psidium araca|Psilotum triquetrum|Pterocaulon virgatum|Putranjiva roxburghii|Quercus canariensis|Quercus infectoria|Rhodiola semenovii|Rhodococcus jostii|Rhus succedanea|Rubritalea squalenifaciens|Sabina chinensis|Salix spp.|Salvia sessei|Schizaphis graminum|Sciadotenia toxifera|Selaginella braunii|Selaginella davidii|Selaginella delicatula|Selaginella doederleinii|Selaginella involvens|Selaginella moellendorffii|Selaginella moellendorfii|Selaginella nothohybrida|Selaginella omeiensis|Selaginella pulvinata|Selaginella sanguinolenta|Selaginella sinensis|Selaginella spp.|Selaginella stauntoniana|Selaginella tamariscina|Selaginella uncinata|Sequoiadendron giganteum|Smilax bockii|Smyrnium olusatrum|Sobina chinensis|Sonneratia caseolaris|Soulamea pancheri|Spermatochnus paradoxus|Stephania zippeliana|Struthiola argentea|Talaromyces variabilis|Taxodium distichum|Taxodium mucronatum|Taxus baccata|Taxus wallichiana|Thuja orientalis|Thuja spp.|Torreya fargesii var. yunnanensis|Torreya grandis|Torreya nucifera|Torreya nuncifera|Torreya yunnanensis|Toxicodendron succedaneum|Tristania conferta|Valeriana microphylla|Vellozia compacta|Vernonia cistifolia|Veronica polita|Viburnum prunifolium|Vittaria anguste-elongata|Xylaria telfairii|Zamia spp.

>  <collections>  (18) 
ANPDB|AnalytiCon Discovery NPs|Australian natural products|BIOFACQUIM|CMAUP (cCollective molecular activities of useful plants)|ChEBI NPs|ChemSpider NPs|ConMedNP|GNPS (Global Natural Products Social Molecular Networking)|KNApSaCK|Latin America dataset|Mitishamba database|NANPDB (Natural Products from Northern African Sources)|NPACT|NPASS|NPCARE|NPEdia|NuBBEDB|Phyto4Health|PubChem NPs|SANCDB|Super Natural II|TCMDB-Taiwan (Traditional Chinese Medicine database)|TCMID (Traditional Chinese Medicine Integrated Database)|TIPdb (database of Taiwan indigenous plants)|UNPD (Universal Natural Products Database)|VietHerb|p-ANAPL

>  <dois>  (18) 
10.1016/j.bmcl.2012.10.127|10.1016/j.jep.2015.01.031|10.1016/j.phytochem.2007.08.003|10.1016/j.phytol.2015.05.008|10.1021/acs.jnatprod.5b00874|10.1021/acs.jnatprod.7b00476|10.1021/np0497595|10.1021/np070629g|10.1021/np960608e|10.1021/np9700275|10.1021/np970569m|10.1021/np990538m|10.1515/znc-1985-5-608|10.1590/S0102-695X2007000300003|10.4103/0974-8490.94735

>  <synonyms>  (18) 
1617-53-4|Didemethyl-ginkgetin|3'|8''-Biapigenin|Amenthoflavone|I3|II8-biapigenin|Tridemethylsciadopitysin|MLS000574827|CHEBI:2631|9I1VC79L77|MFCD00017470|NSC-295677|4H-1-Benzopyran-4-one| 8-5-(5|7-dihydroxy-4-oxo-4H-1-benzopyran-2-yl)-2-hydroxyphenyl-5|7-dihydroxy-2-(4-hydroxyphenyl)-|8-5-(5|7-dihydroxy-4-oxo-chromen-2-yl)-2-hydroxy-phenyl-5|7-dihydroxy-2-(4-hydroxyphenyl)chromen-4-one|SMR000156235|8-(5-(5|7-dihydroxy-4-oxo-4H-1-benzopyran-2-yl)-2-hydroxyphenyl)-5|7-dihydroxy-2-(4-hydroxyphenyl)-4H-1-benzopyran-4-one|SR-01000721725|UNII-9I1VC79L77|AMENTOFLAVONE INCI|BIDD:PXR0028|I3'|II8-BIAPIGENIN|GINKGETIN| DIDEMETHYL-|SCHEMBL312563|MEGxp0_000924|med.21724| Compound 138|DTXSID20167225|Amentoflavone| analytical standard|BDBM429466|HMS2228B12|HMS3343J17|HMS3885A08|-hydroxyphenyl)-5|7-dihydroxy-2-|BCP13255|BEA14006|HY-N0662|Amentoflavone| >=99.0% (HPLC)|LMPK12040009|MFCD20275041|s3833|(4-hydroxyphenyl)-4H-chromen-4-one|AKOS015896819|CCG-269950|CS-4945|3'|8-Bi4'|5|7-trihydroxyflavone|NCGC00247542-01|AC-34718|BS-15502|DB-043499|NS00074071|A11476|A810291|8-(5-(5|7-dihydroxy-4-oxo-4H-chromen-2-yl)-2|Q-100192|Q4742425|4'|5|7-Trihydroxyflavone(3'->8)-4'|5|7-trihydroxyflavone|3'''|8-BIFLAVONE| 4'|4'''|5|5''|7|7''-HEXAHYDROXY|4'|4'''|5|5''|7|7''-Hexahydroxy-3'''|8-biflavone| 8CI|5|5'|7|7'-Tetrahydroxy-2|2'-bis(4-hydroxyphenyl)-3|8'-bi-4H-1-benzopyran-4|4'-dione|8-5-(5|7-dihydroxy-4-oxo-chromen-2-yl)-2-hydroxy-phenyl-5|7-dihydroxy-2-(4-hyd|amentoflavone

>  <cas>  (18) 
1617-53-4

$$$$

     RDKit          2D

 19 21  0  0  0  0  0  0  0  0999 V2000
   -4.0845   -1.9440    0.0000 C   0  0  0  0  0  0  0  0  0  0  0  0
   -3.0535   -0.8545    0.0000 C   0  0  0  0  0  0  0  0  0  0  0  0
   -3.3290    0.6200    0.0000 C   0  0  0  0  0  0  0  0  0  0  0  0
   -4.6838    1.2638    0.0000 O   0  0  0  0  0  0  0  0  0  0  0  0
   -2.0118    1.3376    0.0000 O   0  0  0  0  0  0  0  0  0  0  0  0
   -0.9222    0.3066    0.0000 C   0  0  0  0  0  0  0  0  0  0  0  0
   -1.5661   -1.0482    0.0000 C   0  0  0  0  0  0  0  0  0  0  0  0
   -0.7147   -2.2831    0.0000 C   0  0  0  0  0  0  0  0  0  0  0  0
    0.7805   -2.1633    0.0000 C   0  0  0  0  0  0  0  0  0  0  0  0
    1.4243   -0.8085    0.0000 C   0  0  0  0  0  0  0  0  0  0  0  0
    2.2757   -2.0435    0.0000 C   0  0  0  0  0  0  0  0  0  0  0  0
    2.9196   -0.6887    0.0000 C   0  0  0  0  0  0  0  0  0  0  0  0
    3.7709   -1.9237    0.0000 O   0  0  0  0  0  0  0  0  0  0  0  0
    3.5634    0.6661    0.0000 C   0  0  0  0  0  0  0  0  0  0  0  0
    2.7120    1.9011    0.0000 C   0  0  0  0  0  0  0  0  0  0  0  0
    1.2168    1.7813    0.0000 C   0  0  0  0  0  0  0  0  0  0  0  0
   -0.2292    2.1800    0.0000 C   0  0  0  0  0  0  0  0  0  0  0  0
    1.3585    3.2745    0.0000 O   0  0  0  0  0  0  0  0  0  0  0  0
    0.5730    0.4265    0.0000 C   0  0  0  0  0  0  0  0  0  0  0  0
  1  2  2  0
  2  3  1  0
  3  4  2  0
  3  5  1  0
  6  5  1  1
  6  7  1  0
  7  8  1  0
  8  9  1  0
  9 10  1  0
 10 11  1  6
 10 12  1  0
 12 13  2  0
 12 14  1  0
 14 15  2  0
 15 16  1  0
 16 17  1  6
 16 18  1  0
 19 16  1  6
  7  2  1  0
 19 10  1  0
 19  6  1  0
M  END
>  <identifier>  (19) 
CNP0133977.1

>  <canonical_smiles>  (19) 
C=C1C(=O)O[C@@H]2C1CC[C@]1(C)C(=O)C=C[C@](C)(O)[C@@H]21

>  <standard_inchi>  (19) 
InChI=1S/C15H18O4/c1-8-9-4-6-14(2)10(16)5-7-15(3,18)12(14)11(9)19-13(8)17/h5,7,9,11-12,18H,1,4,6H2,2-3H3/t9?,11-,12+,14-,15+/m1/s1

>  <standard_inchi_key>  (19) 
DZESPMMROLVXTM-OKPQQOGWSA-N

>  <name>  (19) 
nan

>  <iupac_name>  (19) 
(5~{a}~{S},9~{S},9~{a}~{R},9~{b}~{R})-9-hydroxy-5~{a},9-dimethyl-3-methylene-4,5,9~{a},9~{b}-tetrahydro-3~{a}~{H}-benzo[g]benzofuran-2,6-dione

>  <annotation_level>  (19) 
5

>  <total_atom_count>  (19) 
37

>  <heavy_atom_count>  (19) 
19

>  <molecular_weight>  (19) 
262.3

>  <exact_molecular_weight>  (19) 
262.12051

>  <molecular_formula>  (19) 
C15H18O4

>  <alogp>  (19) 
1.39

>  <topological_polar_surface_area>  (19) 
63.60

>  <rotatable_bond_count>  (19) 
0

>  <hydrogen_bond_acceptors>  (19) 
4

>  <hydrogen_bond_donors>  (19) 
1

>  <hydrogen_bond_acceptors_lipinski>  (19) 
4

>  <hydrogen_bond_donors_lipinski>  (19) 
1

>  <lipinski_rule_of_five_violations>  (19) 
0

>  <aromatic_rings_count>  (19) 
0

>  <qed_drug_likeliness>  (19) 
0.53

>  <formal_charge>  (19) 
0

>  <fractioncsp3>  (19) 
0.60

>  <number_of_minimal_rings>  (19) 
3

>  <van_der_walls_volume>  (19) 
237.14

>  <contains_sugar>  (19) 
False

>  <contains_ring_sugars>  (19) 
False

>  <contains_linear_sugars>  (19) 
False

>  <murcko_framework>  (19) 
O1CCC2CCC3CC=CCC3C12

>  <np_likeness>  (19) 
3.56

>  <chemical_class>  (19) 
Prenol lipids

>  <chemical_sub_class>  (19) 
Terpene lactones

>  <chemical_super_class>  (19) 
Lipids and lipid-like molecules

>  <direct_parent_classification>  (19) 
Eudesmanolides, secoeudesmanolides, and derivatives

>  <np_classifier_pathway>  (19) 
Terpenoids

>  <np_classifier_superclass>  (19) 
Sesquiterpenoids

>  <np_classifier_class>  (19) 
Eudesmane sesquiterpenoids

>  <np_classifier_is_glycoside>  (19) 
False

>  <organisms>  (19) 
Artemisia ludoviciana

>  <collections>  (19) 
BIOFACQUIM|Latin America dataset

>  <dois>  (19) 
10.1016/j.jep.2014.05.051

>  <synonyms>  (19) 
Arglanin

>  <cas>  (19) 
nan

$$$$

     RDKit          2D

 38 40  0  0  0  0  0  0  0  0999 V2000
    1.2812   -6.1230    0.0000 C   0  0  0  0  0  0  0  0  0  0  0  0
    0.3339   -4.9600    0.0000 O   0  0  0  0  0  0  0  0  0  0  0  0
    0.8674   -3.5581    0.0000 C   0  0  0  0  0  0  0  0  0  0  0  0
    2.3483   -3.3192    0.0000 O   0  0  0  0  0  0  0  0  0  0  0  0
   -0.0799   -2.3951    0.0000 C   0  0  0  0  0  0  0  0  0  0  0  0
   -1.0608   -3.5300    0.0000 O   0  0  0  0  0  0  0  0  0  0  0  0
   -1.3679   -1.6262    0.0000 C   0  0  0  0  0  0  0  0  0  0  0  0
   -1.3460   -0.1264    0.0000 C   0  0  0  0  0  0  0  0  0  0  0  0
   -2.6340    0.6425    0.0000 O   0  0  0  0  0  0  0  0  0  0  0  0
   -3.9438   -0.0885    0.0000 C   0  0  0  0  0  0  0  0  0  0  0  0
   -3.9657   -1.5883    0.0000 O   0  0  0  0  0  0  0  0  0  0  0  0
   -5.2318    0.6804    0.0000 C   0  0  0  0  0  0  0  0  0  0  0  0
   -6.5416   -0.0506    0.0000 C   0  0  0  0  0  0  0  0  0  0  0  0
   -7.8296    0.7183    0.0000 C   0  0  0  0  0  0  0  0  0  0  0  0
   -7.8077    2.2181    0.0000 C   0  0  0  0  0  0  0  0  0  0  0  0
   -9.0957    2.9870    0.0000 C   0  0  0  0  0  0  0  0  0  0  0  0
  -10.4055    2.2560    0.0000 C   0  0  0  0  0  0  0  0  0  0  0  0
  -11.6935    3.0248    0.0000 O   0  0  0  0  0  0  0  0  0  0  0  0
  -10.4274    0.7561    0.0000 C   0  0  0  0  0  0  0  0  0  0  0  0
  -11.7372    0.0251    0.0000 O   0  0  0  0  0  0  0  0  0  0  0  0
   -9.1394   -0.0127    0.0000 C   0  0  0  0  0  0  0  0  0  0  0  0
   -0.0362    0.6046    0.0000 C   0  0  0  0  0  0  0  0  0  0  0  0
   -0.0143    2.1045    0.0000 O   0  0  0  0  0  0  0  0  0  0  0  0
    1.2518   -0.1642    0.0000 C   0  0  0  0  0  0  0  0  0  0  0  0
    2.5616    0.5667    0.0000 O   0  0  0  0  0  0  0  0  0  0  0  0
    3.8496   -0.2021    0.0000 C   0  0  0  0  0  0  0  0  0  0  0  0
    3.8277   -1.7020    0.0000 O   0  0  0  0  0  0  0  0  0  0  0  0
    5.1594    0.5289    0.0000 C   0  0  0  0  0  0  0  0  0  0  0  0
    6.4474   -0.2400    0.0000 C   0  0  0  0  0  0  0  0  0  0  0  0
    7.7572    0.4910    0.0000 C   0  0  0  0  0  0  0  0  0  0  0  0
    9.0452   -0.2779    0.0000 C   0  0  0  0  0  0  0  0  0  0  0  0
   10.3550    0.4531    0.0000 C   0  0  0  0  0  0  0  0  0  0  0  0
   10.3769    1.9529    0.0000 C   0  0  0  0  0  0  0  0  0  0  0  0
   11.6867    2.6839    0.0000 O   0  0  0  0  0  0  0  0  0  0  0  0
    9.0889    2.7218    0.0000 C   0  0  0  0  0  0  0  0  0  0  0  0
    9.1108    4.2216    0.0000 O   0  0  0  0  0  0  0  0  0  0  0  0
    7.7791    1.9908    0.0000 C   0  0  0  0  0  0  0  0  0  0  0  0
    1.2299   -1.6641    0.0000 C   0  0  0  0  0  0  0  0  0  0  0  0
  1  2  1  0
  2  3  1  0
  3  4  2  0
  3  5  1  0
  5  6  1  0
  5  7  1  0
  7  8  1  0
  8  9  1  1
  9 10  1  0
 10 11  2  0
 10 12  1  0
 12 13  2  0
 13 14  1  0
 14 15  2  0
 15 16  1  0
 16 17  2  0
 17 18  1  0
 17 19  1  0
 19 20  1  0
 19 21  2  0
  8 22  1  0
 22 23  1  0
 22 24  1  0
 24 25  1  6
 25 26  1  0
 26 27  2  0
 26 28  1  0
 28 29  2  0
 29 30  1  0
 30 31  2  0
 31 32  1  0
 32 33  2  0
 33 34  1  0
 33 35  1  0
 35 36  1  0
 35 37  2  0
 24 38  1  0
 38  5  1  0
 21 14  1  0
 37 30  1  0
M  END
>  <identifier>  (20) 
CNP0195423.1

>  <canonical_smiles>  (20) 
COC(=O)C1(O)C[C@@H](OC(=O)/C=C/C2=CC=C(O)C(O)=C2)C(O)[C@H](OC(=O)/C=C/C2=CC=C(O)C(O)=C2)C1

>  <standard_inchi>  (20) 
InChI=1S/C26H26O12/c1-36-25(34)26(35)12-20(37-22(31)8-4-14-2-6-16(27)18(29)10-14)24(33)21(13-26)38-23(32)9-5-15-3-7-17(28)19(30)11-15/h2-11,20-21,24,27-30,33,35H,12-13H2,1H3/b8-4+,9-5+/t20-,21-,24?,26?/m1/s1

>  <standard_inchi_key>  (20) 
VEBNYMXKXIIGFX-IYVYCCGLSA-N

>  <name>  (20) 
Macranthoin G

>  <iupac_name>  (20) 
trans-methyl (3~{R},5~{R})-3,5-bis[[(~{E})-3-(3,4-dihydroxyphenyl)prop-2-enoyl]oxy]-1,4-dihydroxy-cyclohexanecarboxylate

>  <annotation_level>  (20) 
5

>  <total_atom_count>  (20) 
64

>  <heavy_atom_count>  (20) 
38

>  <molecular_weight>  (20) 
530.48

>  <exact_molecular_weight>  (20) 
530.14243

>  <molecular_formula>  (20) 
C26H26O12

>  <alogp>  (20) 
1.12

>  <topological_polar_surface_area>  (20) 
200.28

>  <rotatable_bond_count>  (20) 
7

>  <hydrogen_bond_acceptors>  (20) 
12

>  <hydrogen_bond_donors>  (20) 
6

>  <hydrogen_bond_acceptors_lipinski>  (20) 
12

>  <hydrogen_bond_donors_lipinski>  (20) 
6

>  <lipinski_rule_of_five_violations>  (20) 
3

>  <aromatic_rings_count>  (20) 
2

>  <qed_drug_likeliness>  (20) 
0.13

>  <formal_charge>  (20) 
0

>  <fractioncsp3>  (20) 
0.27

>  <number_of_minimal_rings>  (20) 
3

>  <van_der_walls_volume>  (20) 
450.25

>  <contains_sugar>  (20) 
False

>  <contains_ring_sugars>  (20) 
False

>  <contains_linear_sugars>  (20) 
False

>  <murcko_framework>  (20) 
O(CC=Cc1ccccc1)C2CCCC(OCC=Cc3ccccc3)C2

>  <np_likeness>  (20) 
1.29

>  <chemical_class>  (20) 
Organooxygen compounds

>  <chemical_sub_class>  (20) 
Alcohols and polyols

>  <chemical_super_class>  (20) 
Organic oxygen compounds

>  <direct_parent_classification>  (20) 
Quinic acids and derivatives

>  <np_classifier_pathway>  (20) 
Shikimates and Phenylpropanoids

>  <np_classifier_superclass>  (20) 
Phenylpropanoids (C6-C3)

>  <np_classifier_class>  (20) 
Cinnamic acids and derivatives

>  <np_classifier_is_glycoside>  (20) 
False

>  <organisms>  (20) 
Ageratina adenophora|Akebia quinata|Akebia trifoliata|Artemisia ludoviciana|Lonicera confusa|Lonicera fulvotomentosa|Lonicera hypoglauca|Lonicera japonica|Lonicera macranthoides

>  <collections>  (20) 
Australian natural products|BIOFACQUIM|CMAUP (cCollective molecular activities of useful plants)|Latin America dataset|NPASS

>  <dois>  (20) 
10.1016/j.jep.2014.05.051|10.1016/s0367-326x(00)00212-4|10.3390/molecules181114096

>  <synonyms>  (20) 
159934-13-1|3|5-Di-O-caffeoylquinic acid methyl ester|methyl 3|5-di-O-caffeoyl quinate|CHEBI:66708|3|5-Dicaffeoylquinic Acid Methyl Ester|CHEMBL463337|methyl (3R|5R)-3|5-bis(E)-3-(3|4-dihydroxyphenyl)prop-2-enoyloxy-1|4-dihydroxycyclohexane-1-carboxylate|Me-3|5-diCQA|CHEMBL4125897|HY-N8453|BDBM50163307|AKOS040761072|FS-7144|1ST168460|CS-0144283|Q27135330|(1R|2S|3R|5S)-2|5-Dihydroxy-5-(methoxycarbonyl)cyclohexane-1|3-diyl (2E|2'E)-bis(3-(3|4-dihydroxyphenyl)acrylate)|3|5-Di-O-caffeoylquinic methyl estermethyl 3|5-di-O-caffeoyl quinate; 3|5-Dicaffeoylquinic Acid Methyl Ester|3 5-dicaffeoylquinic acid

>  <cas>  (20) 
159934-13-1

$$$$

     RDKit          2D

 40 45  0  0  0  0  0  0  0  0999 V2000
    5.3347   -3.5316    0.0000 O   0  0  0  0  0  0  0  0  0  0  0  0
    5.4796   -2.0386    0.0000 C   0  0  0  0  0  0  0  0  0  0  0  0
    4.2590   -1.1667    0.0000 C   0  0  0  0  0  0  0  0  0  0  0  0
    4.4039    0.3263    0.0000 C   0  0  0  0  0  0  0  0  0  0  0  0
    3.1833    1.1982    0.0000 C   0  0  0  0  0  0  0  0  0  0  0  0
    3.3282    2.6912    0.0000 C   0  0  0  0  0  0  0  0  0  0  0  0
    2.1076    3.5631    0.0000 C   0  0  0  0  0  0  0  0  0  0  0  0
    0.7422    2.9421    0.0000 C   0  0  0  0  0  0  0  0  0  0  0  0
   -0.4783    3.8140    0.0000 O   0  0  0  0  0  0  0  0  0  0  0  0
    0.5974    1.4491    0.0000 C   0  0  0  0  0  0  0  0  0  0  0  0
   -0.7680    0.8280    0.0000 C   0  0  0  0  0  0  0  0  0  0  0  0
   -0.9128   -0.6650    0.0000 C   0  0  0  0  0  0  0  0  0  0  0  0
    0.3077   -1.5369    0.0000 O   0  0  0  0  0  0  0  0  0  0  0  0
   -2.2782   -1.2860    0.0000 C   0  0  0  0  0  0  0  0  0  0  0  0
   -3.4988   -0.4141    0.0000 C   0  0  0  0  0  0  0  0  0  0  0  0
   -4.8642   -1.0352    0.0000 O   0  0  0  0  0  0  0  0  0  0  0  0
   -6.0847   -0.1632    0.0000 C   0  0  0  0  0  0  0  0  0  0  0  0
   -7.4501   -0.7843    0.0000 C   0  0  0  0  0  0  0  0  0  0  0  0
   -8.6707    0.0876    0.0000 C   0  0  0  0  0  0  0  0  0  0  0  0
  -10.0360   -0.5334    0.0000 C   0  0  0  0  0  0  0  0  0  0  0  0
  -10.1809   -2.0264    0.0000 C   0  0  0  0  0  0  0  0  0  0  0  0
  -11.5463   -2.6475    0.0000 O   0  0  0  0  0  0  0  0  0  0  0  0
   -8.9603   -2.8983    0.0000 C   0  0  0  0  0  0  0  0  0  0  0  0
   -7.5949   -2.2773    0.0000 C   0  0  0  0  0  0  0  0  0  0  0  0
   -5.9399    1.3298    0.0000 C   0  0  0  0  0  0  0  0  0  0  0  0
   -4.5745    1.9508    0.0000 C   0  0  0  0  0  0  0  0  0  0  0  0
   -4.4297    3.4438    0.0000 O   0  0  0  0  0  0  0  0  0  0  0  0
   -3.3539    1.0789    0.0000 C   0  0  0  0  0  0  0  0  0  0  0  0
   -1.9886    1.7000    0.0000 C   0  0  0  0  0  0  0  0  0  0  0  0
   -1.8437    3.1929    0.0000 O   0  0  0  0  0  0  0  0  0  0  0  0
    1.8179    0.5772    0.0000 C   0  0  0  0  0  0  0  0  0  0  0  0
    5.7692    0.9474    0.0000 O   0  0  0  0  0  0  0  0  0  0  0  0
    6.9898    0.0754    0.0000 C   0  0  0  0  0  0  0  0  0  0  0  0
    8.3552    0.6965    0.0000 C   0  0  0  0  0  0  0  0  0  0  0  0
    9.5757   -0.1754    0.0000 C   0  0  0  0  0  0  0  0  0  0  0  0
   10.9411    0.4456    0.0000 O   0  0  0  0  0  0  0  0  0  0  0  0
    9.4309   -1.6684    0.0000 C   0  0  0  0  0  0  0  0  0  0  0  0
    8.0655   -2.2895    0.0000 C   0  0  0  0  0  0  0  0  0  0  0  0
    7.9207   -3.7825    0.0000 O   0  0  0  0  0  0  0  0  0  0  0  0
    6.8450   -1.4176    0.0000 C   0  0  0  0  0  0  0  0  0  0  0  0
  1  2  2  0
  2  3  1  0
  3  4  2  0
  4  5  1  0
  5  6  2  0
  6  7  1  0
  7  8  2  0
  8  9  1  0
  8 10  1  0
 10 11  1  0
 11 12  2  0
 12 13  1  0
 12 14  1  0
 14 15  2  0
 15 16  1  0
 16 17  1  0
 17 18  1  0
 18 19  2  0
 19 20  1  0
 20 21  2  0
 21 22  1  0
 21 23  1  0
 23 24  2  0
 17 25  2  0
 25 26  1  0
 26 27  2  0
 26 28  1  0
 28 29  2  0
 29 30  1  0
 10 31  2  0
  4 32  1  0
 32 33  1  0
 33 34  2  0
 34 35  1  0
 35 36  1  0
 35 37  2  0
 37 38  1  0
 38 39  1  0
 38 40  2  0
 40  2  1  0
 31  5  1  0
 40 33  1  0
 29 11  1  0
 28 15  1  0
 24 18  1  0
M  END
>  <identifier>  (21) 
CNP0211621.0

>  <canonical_smiles>  (21) 
O=C1C=C(C2=CC=C(O)C(C3=C(O)C=C4OC(C5=CC=C(O)C=C5)=CC(=O)C4=C3O)=C2)OC2=CC(O)=CC(O)=C12

>  <standard_inchi>  (21) 
InChI=1S/C30H18O10/c31-15-4-1-13(2-5-15)23-11-22(37)29-26(39-23)12-20(35)27(30(29)38)17-7-14(3-6-18(17)33)24-10-21(36)28-19(34)8-16(32)9-25(28)40-24/h1-12,31-35,38H

>  <standard_inchi_key>  (21) 
BORWSEZUWHQTOK-UHFFFAOYSA-N

>  <name>  (21) 
Robustaflavone

>  <iupac_name>  (21) 
6-[5-(5,7-dihydroxy-4-oxo-chromen-2-yl)-2-hydroxy-phenyl]-5,7-dihydroxy-2-(4-hydroxyphenyl)chromen-4-one

>  <annotation_level>  (21) 
5

>  <total_atom_count>  (21) 
58

>  <heavy_atom_count>  (21) 
40

>  <molecular_weight>  (21) 
538.46

>  <exact_molecular_weight>  (21) 
538.09

>  <molecular_formula>  (21) 
C30H18O10

>  <alogp>  (21) 
5.13

>  <topological_polar_surface_area>  (21) 
181.80

>  <rotatable_bond_count>  (21) 
3

>  <hydrogen_bond_acceptors>  (21) 
10

>  <hydrogen_bond_donors>  (21) 
6

>  <hydrogen_bond_acceptors_lipinski>  (21) 
10

>  <hydrogen_bond_donors_lipinski>  (21) 
6

>  <lipinski_rule_of_five_violations>  (21) 
3

>  <aromatic_rings_count>  (21) 
6

>  <qed_drug_likeliness>  (21) 
0.18

>  <formal_charge>  (21) 
0

>  <fractioncsp3>  (21) 
0.00

>  <number_of_minimal_rings>  (21) 
6

>  <van_der_walls_volume>  (21) 
432.67

>  <contains_sugar>  (21) 
False

>  <contains_ring_sugars>  (21) 
False

>  <contains_linear_sugars>  (21) 
False

>  <murcko_framework>  (21) 
O1c2ccc(cc2CC=C1c3ccccc3)-c4cccc(c4)C=5Oc6ccccc6CC5

>  <np_likeness>  (21) 
1.18

>  <chemical_class>  (21) 
Flavonoids

>  <chemical_sub_class>  (21) 
Biflavonoids and polyflavonoids

>  <chemical_super_class>  (21) 
Phenylpropanoids and polyketides

>  <direct_parent_classification>  (21) 
Biflavonoids and polyflavonoids

>  <np_classifier_pathway>  (21) 
Shikimates and Phenylpropanoids

>  <np_classifier_superclass>  (21) 
Flavonoids

>  <np_classifier_class>  (21) 
Flavones

>  <np_classifier_is_glycoside>  (21) 
False

>  <organisms>  (21) 
Agathis robusta|Araucaria sp.|Araucaria spp.|Aronia arbutifolia|Clibadium mexiae|Cunninghamia lanceolata|Cunninghamia lanceolata Hook.f.|Dacrycarpus imbricatus|Dietes bicolor|Discaria serratifolia|Eucalyptus robusta|Ideopsis similis|Juniperus sp.|Juniperus spp.|Justicia hayatai|Podocarpus imbricatus|Pteris dactylina|Pyrostegia venusta|Rana amurensis|Rhus sp.|Rhus spp.|Rhus succedanea|Schinus terebenthefolus|Selaginella delicatula|Selaginella nothohybrida|Selaginella pulvinata|Selaginella tamariscina|Viscaria viscosa

>  <collections>  (21) 
ANPDB|Australian natural products|BIOFACQUIM|CMAUP (cCollective molecular activities of useful plants)|ChEBI NPs|KNApSaCK|Latin America dataset|NANPDB (Natural Products from Northern African Sources)|NPASS|NPCARE|NPEdia|Super Natural II|TCMDB-Taiwan (Traditional Chinese Medicine database)|TCMID (Traditional Chinese Medicine Integrated Database)|TIPdb (database of Taiwan indigenous plants)|UNPD (Universal Natural Products Database)|VietHerb|ZINC NP

>  <dois>  (21) 
10.1007/s10600-005-0008-z|10.1016/j.jep.2015.01.031|10.1071/bt9840015

>  <synonyms>  (21) 
49620-13-5|3'|6''-Biapigenin|CHEBI:8881|6-5-(5|7-dihydroxy-4-oxochromen-2-yl)-2-hydroxyphenyl-5|7-dihydroxy-2-(4-hydroxyphenyl)chromen-4-one|SCHEMBL561807|DTXSID30197937|BORWSEZUWHQTOK-UHFFFAOYSA-N|HY-N5013|LMPK12040005|AKOS040747412|CS-0032074|Q27089374|4H-1-Benzopyran-4-one| 6-(5-(5|7-dihydroxy-4-oxo-4H-1-benzopyran-2-yl)-2-hydroxyphenyl)-5|7-dihydroxy-2-(4-hydroxyphenyl)|6-(5-(5|7-dihydroxy-4-oxo-4H-1-benzopyran-2-yl)-2-hydroxyphenyl)-5|7-dihydroxy-2-(4-hydroxyphenyl)-4H-1-benzopyran-4-one|Robustaflavone|tetrahydrorobustaflavone

>  <cas>  (21) 
49620-13-5

$$$$

     RDKit          2D

 38 38  0  0  0  0  0  0  0  0999 V2000
  -23.2715    0.6580    0.0000 C   0  0  0  0  0  0  0  0  0  0  0  0
  -21.9882   -0.1186    0.0000 C   0  0  0  0  0  0  0  0  0  0  0  0
  -20.6740    0.6044    0.0000 C   0  0  0  0  0  0  0  0  0  0  0  0
  -19.3907   -0.1723    0.0000 C   0  0  0  0  0  0  0  0  0  0  0  0
  -18.0765    0.5508    0.0000 C   0  0  0  0  0  0  0  0  0  0  0  0
  -16.7932   -0.2259    0.0000 C   0  0  0  0  0  0  0  0  0  0  0  0
  -15.4789    0.4972    0.0000 C   0  0  0  0  0  0  0  0  0  0  0  0
  -14.1957   -0.2795    0.0000 C   0  0  0  0  0  0  0  0  0  0  0  0
  -12.8814    0.4435    0.0000 C   0  0  0  0  0  0  0  0  0  0  0  0
  -11.5981   -0.3331    0.0000 C   0  0  0  0  0  0  0  0  0  0  0  0
  -10.2839    0.3899    0.0000 C   0  0  0  0  0  0  0  0  0  0  0  0
   -9.0006   -0.3867    0.0000 C   0  0  0  0  0  0  0  0  0  0  0  0
   -7.6864    0.3363    0.0000 C   0  0  0  0  0  0  0  0  0  0  0  0
   -6.4031   -0.4403    0.0000 C   0  0  0  0  0  0  0  0  0  0  0  0
   -5.0888    0.2827    0.0000 C   0  0  0  0  0  0  0  0  0  0  0  0
   -3.8056   -0.4939    0.0000 C   0  0  0  0  0  0  0  0  0  0  0  0
   -2.4913    0.2291    0.0000 C   0  0  0  0  0  0  0  0  0  0  0  0
   -1.2080   -0.5476    0.0000 C   0  0  0  0  0  0  0  0  0  0  0  0
    0.1062    0.1755    0.0000 C   0  0  0  0  0  0  0  0  0  0  0  0
    1.3895   -0.6012    0.0000 C   0  0  0  0  0  0  0  0  0  0  0  0
    2.7037    0.1219    0.0000 C   0  0  0  0  0  0  0  0  0  0  0  0
    3.9870   -0.6548    0.0000 C   0  0  0  0  0  0  0  0  0  0  0  0
    5.3012    0.0682    0.0000 C   0  0  0  0  0  0  0  0  0  0  0  0
    6.5845   -0.7084    0.0000 C   0  0  0  0  0  0  0  0  0  0  0  0
    7.8988    0.0146    0.0000 C   0  0  0  0  0  0  0  0  0  0  0  0
    9.1821   -0.7620    0.0000 C   0  0  0  0  0  0  0  0  0  0  0  0
   10.4963   -0.0390    0.0000 O   0  0  0  0  0  0  0  0  0  0  0  0
   11.7796   -0.8156    0.0000 C   0  0  0  0  0  0  0  0  0  0  0  0
   11.7486   -2.3153    0.0000 O   0  0  0  0  0  0  0  0  0  0  0  0
   13.0938   -0.0926    0.0000 C   0  0  0  0  0  0  0  0  0  0  0  0
   14.3771   -0.8692    0.0000 C   0  0  0  0  0  0  0  0  0  0  0  0
   15.6913   -0.1462    0.0000 C   0  0  0  0  0  0  0  0  0  0  0  0
   15.7223    1.3535    0.0000 C   0  0  0  0  0  0  0  0  0  0  0  0
   17.0365    2.0765    0.0000 C   0  0  0  0  0  0  0  0  0  0  0  0
   18.3198    1.2999    0.0000 C   0  0  0  0  0  0  0  0  0  0  0  0
   19.6341    2.0229    0.0000 O   0  0  0  0  0  0  0  0  0  0  0  0
   18.2889   -0.1998    0.0000 C   0  0  0  0  0  0  0  0  0  0  0  0
   16.9746   -0.9229    0.0000 C   0  0  0  0  0  0  0  0  0  0  0  0
  1  2  1  0
  2  3  1  0
  3  4  1  0
  4  5  1  0
  5  6  1  0
  6  7  1  0
  7  8  1  0
  8  9  1  0
  9 10  1  0
 10 11  1  0
 11 12  1  0
 12 13  1  0
 13 14  1  0
 14 15  1  0
 15 16  1  0
 16 17  1  0
 17 18  1  0
 18 19  1  0
 19 20  1  0
 20 21  1  0
 21 22  1  0
 22 23  1  0
 23 24  1  0
 24 25  1  0
 25 26  1  0
 26 27  1  0
 27 28  1  0
 28 29  2  0
 28 30  1  0
 30 31  2  3
 31 32  1  0
 32 33  2  0
 33 34  1  0
 34 35  2  0
 35 36  1  0
 35 37  1  0
 37 38  2  0
 38 32  1  0
M  END
>  <identifier>  (22) 
CNP0292436.0

>  <canonical_smiles>  (22) 
CCCCCCCCCCCCCCCCCCCCCCCCCCOC(=O)C=CC1=CC=C(O)C=C1

>  <standard_inchi>  (22) 
InChI=1S/C35H60O3/c1-2-3-4-5-6-7-8-9-10-11-12-13-14-15-16-17-18-19-20-21-22-23-24-25-32-38-35(37)31-28-33-26-29-34(36)30-27-33/h26-31,36H,2-25,32H2,1H3

>  <standard_inchi_key>  (22) 
SZCAUZSZQPVKQY-UHFFFAOYSA-N

>  <name>  (22) 
71660-26-9

>  <iupac_name>  (22) 
hexacosyl 3-(4-hydroxyphenyl)prop-2-enoate

>  <annotation_level>  (22) 
5

>  <total_atom_count>  (22) 
98

>  <heavy_atom_count>  (22) 
38

>  <molecular_weight>  (22) 
528.86

>  <exact_molecular_weight>  (22) 
528.45425

>  <molecular_formula>  (22) 
C35H60O3

>  <alogp>  (22) 
11.33

>  <topological_polar_surface_area>  (22) 
46.53

>  <rotatable_bond_count>  (22) 
27

>  <hydrogen_bond_acceptors>  (22) 
3

>  <hydrogen_bond_donors>  (22) 
1

>  <hydrogen_bond_acceptors_lipinski>  (22) 
3

>  <hydrogen_bond_donors_lipinski>  (22) 
1

>  <lipinski_rule_of_five_violations>  (22) 
2

>  <aromatic_rings_count>  (22) 
1

>  <qed_drug_likeliness>  (22) 
0.07

>  <formal_charge>  (22) 
0

>  <fractioncsp3>  (22) 
0.74

>  <number_of_minimal_rings>  (22) 
1

>  <van_der_walls_volume>  (22) 
580.14

>  <contains_sugar>  (22) 
False

>  <contains_ring_sugars>  (22) 
False

>  <contains_linear_sugars>  (22) 
False

>  <murcko_framework>  (22) 
c1ccccc1

>  <np_likeness>  (22) 
0.33

>  <chemical_class>  (22) 
Cinnamic acids and derivatives

>  <chemical_sub_class>  (22) 
Hydroxycinnamic acids and derivatives

>  <chemical_super_class>  (22) 
Phenylpropanoids and polyketides

>  <direct_parent_classification>  (22) 
Hydroxycinnamic acids

>  <np_classifier_pathway>  (22) 
nan

>  <np_classifier_superclass>  (22) 
nan

>  <np_classifier_class>  (22) 
nan

>  <np_classifier_is_glycoside>  (22) 
False

>  <organisms>  (22) 
Acacia dealbata|Cirsium|Cyrtopodium macrobulbon|Rosa rugosa|Rubus chingii|Rubus coreanus

>  <collections>  (22) 
Australian natural products|BIOFACQUIM|CMAUP (cCollective molecular activities of useful plants)|Latin America dataset|NPASS|Super Natural II|TCMDB-Taiwan (Traditional Chinese Medicine database)|UNPD (Universal Natural Products Database)|ZINC NP

>  <dois>  (22) 
10.1002/pca.964|10.1016/j.jep.2014.05.006

>  <synonyms>  (22) 
2-Propenoic acid| 3-(4-hydroxyphenyl)-| hexacosyl ester|DTXSID80333661|n-hexacosyl-trans-p-coumarate

>  <cas>  (22) 
nan

$$$$

     RDKit          2D

 19 20  0  0  0  0  0  0  0  0999 V2000
   -5.6032   -0.0611    0.0000 C   0  0  0  0  0  0  0  0  0  0  0  0
   -4.3779   -0.9263    0.0000 O   0  0  0  0  0  0  0  0  0  0  0  0
   -3.0159   -0.2977    0.0000 C   0  0  0  0  0  0  0  0  0  0  0  0
   -2.8794    1.1961    0.0000 C   0  0  0  0  0  0  0  0  0  0  0  0
   -1.5174    1.8247    0.0000 C   0  0  0  0  0  0  0  0  0  0  0  0
   -1.3808    3.3184    0.0000 O   0  0  0  0  0  0  0  0  0  0  0  0
   -0.2921    0.9595    0.0000 C   0  0  0  0  0  0  0  0  0  0  0  0
    1.0699    1.5881    0.0000 N   0  0  0  0  0  0  0  0  0  0  0  0
    2.2952    0.7229    0.0000 C   0  0  0  0  0  0  0  0  0  0  0  0
    2.1586   -0.7709    0.0000 C   0  0  0  0  0  0  0  0  0  0  0  0
    3.3840   -1.6361    0.0000 C   0  0  0  0  0  0  0  0  0  0  0  0
    4.7459   -1.0075    0.0000 C   0  0  0  0  0  0  0  0  0  0  0  0
    4.8825    0.4863    0.0000 C   0  0  0  0  0  0  0  0  0  0  0  0
    3.6571    1.3515    0.0000 C   0  0  0  0  0  0  0  0  0  0  0  0
   -0.4287   -0.5343    0.0000 C   0  0  0  0  0  0  0  0  0  0  0  0
    1.0661   -0.4094    0.0000 C   0  0  0  0  0  0  0  0  0  0  0  0
   -0.0461   -1.9847    0.0000 O   0  0  0  0  0  0  0  0  0  0  0  0
   -1.7906   -1.1629    0.0000 C   0  0  0  0  0  0  0  0  0  0  0  0
   -1.9272   -2.6566    0.0000 O   0  0  0  0  0  0  0  0  0  0  0  0
  1  2  1  0
  2  3  1  0
  3  4  2  0
  4  5  1  0
  5  6  2  0
  5  7  1  0
  7  8  1  6
  8  9  1  0
  9 10  2  0
 10 11  1  0
 11 12  2  0
 12 13  1  0
 13 14  2  0
  7 15  1  0
 15 16  1  6
 15 17  1  0
 15 18  1  0
 18 19  1  1
 18  3  1  0
 14  9  1  0
M  END
>  <identifier>  (23) 
CNP0173284.1

>  <canonical_smiles>  (23) 
COC1=CC(=O)[C@H](NC2=CC=CC=C2)[C@@](C)(O)[C@H]1O

>  <standard_inchi>  (23) 
InChI=1S/C14H17NO4/c1-14(18)12(15-9-6-4-3-5-7-9)10(16)8-11(19-2)13(14)17/h3-8,12-13,15,17-18H,1-2H3/t12-,13-,14+/m0/s1

>  <standard_inchi_key>  (23) 
GUAACJNCCYVZCM-MELADBBJSA-N

>  <name>  (23) 
(4r,5r,6r)-4,5-dihydroxy-3-methoxy-5-methyl-6-(phenylamino)cyclohex-2-enone

>  <iupac_name>  (23) 
(4~{R},5~{R},6~{R})-6-anilino-4,5-dihydroxy-3-methoxy-5-methyl-cyclohex-2-en-1-one

>  <annotation_level>  (23) 
5

>  <total_atom_count>  (23) 
36

>  <heavy_atom_count>  (23) 
19

>  <molecular_weight>  (23) 
263.29

>  <exact_molecular_weight>  (23) 
263.11576

>  <molecular_formula>  (23) 
C14H17NO4

>  <alogp>  (23) 
0.69

>  <topological_polar_surface_area>  (23) 
78.79

>  <rotatable_bond_count>  (23) 
3

>  <hydrogen_bond_acceptors>  (23) 
5

>  <hydrogen_bond_donors>  (23) 
3

>  <hydrogen_bond_acceptors_lipinski>  (23) 
5

>  <hydrogen_bond_donors_lipinski>  (23) 
3

>  <lipinski_rule_of_five_violations>  (23) 
0

>  <aromatic_rings_count>  (23) 
1

>  <qed_drug_likeliness>  (23) 
0.75

>  <formal_charge>  (23) 
0

>  <fractioncsp3>  (23) 
0.36

>  <number_of_minimal_rings>  (23) 
2

>  <van_der_walls_volume>  (23) 
239.29

>  <contains_sugar>  (23) 
False

>  <contains_ring_sugars>  (23) 
False

>  <contains_linear_sugars>  (23) 
False

>  <murcko_framework>  (23) 
c1ccc(cc1)NC2CC=CCC2

>  <np_likeness>  (23) 
1.25

>  <chemical_class>  (23) 
Organonitrogen compounds

>  <chemical_sub_class>  (23) 
Amines

>  <chemical_super_class>  (23) 
Organic nitrogen compounds

>  <direct_parent_classification>  (23) 
Phenylalkylamines

>  <np_classifier_pathway>  (23) 
nan

>  <np_classifier_superclass>  (23) 
nan

>  <np_classifier_class>  (23) 
nan

>  <np_classifier_is_glycoside>  (23) 
False

>  <organisms>  (23) 
Xylaria feejeensis

>  <collections>  (23) 
BIOFACQUIM|Latin America dataset

>  <dois>  (23) 
10.1021/acs.jafc.6b01111

>  <synonyms>  (23) 
(4R 5R 6R)-4 5-Dihydroxy-3-methoxy-5-methyl-6-(phenylamino)cyclohex-2-enone

>  <cas>  (23) 
nan

$$$$

     RDKit          2D

 40 40  0  0  0  0  0  0  0  0999 V2000
  -24.6090    0.6452    0.0000 C   0  0  0  0  0  0  0  0  0  0  0  0
  -23.3242   -0.1288    0.0000 C   0  0  0  0  0  0  0  0  0  0  0  0
  -22.0114    0.5969    0.0000 C   0  0  0  0  0  0  0  0  0  0  0  0
  -20.7265   -0.1771    0.0000 C   0  0  0  0  0  0  0  0  0  0  0  0
  -19.4138    0.5486    0.0000 C   0  0  0  0  0  0  0  0  0  0  0  0
  -18.1289   -0.2254    0.0000 C   0  0  0  0  0  0  0  0  0  0  0  0
  -16.8161    0.5003    0.0000 C   0  0  0  0  0  0  0  0  0  0  0  0
  -15.5313   -0.2737    0.0000 C   0  0  0  0  0  0  0  0  0  0  0  0
  -14.2185    0.4520    0.0000 C   0  0  0  0  0  0  0  0  0  0  0  0
  -12.9337   -0.3221    0.0000 C   0  0  0  0  0  0  0  0  0  0  0  0
  -11.6209    0.4037    0.0000 C   0  0  0  0  0  0  0  0  0  0  0  0
  -10.3360   -0.3704    0.0000 C   0  0  0  0  0  0  0  0  0  0  0  0
   -9.0233    0.3553    0.0000 C   0  0  0  0  0  0  0  0  0  0  0  0
   -7.7384   -0.4187    0.0000 C   0  0  0  0  0  0  0  0  0  0  0  0
   -6.4256    0.3070    0.0000 C   0  0  0  0  0  0  0  0  0  0  0  0
   -5.1408   -0.4670    0.0000 C   0  0  0  0  0  0  0  0  0  0  0  0
   -3.8280    0.2587    0.0000 C   0  0  0  0  0  0  0  0  0  0  0  0
   -2.5431   -0.5153    0.0000 C   0  0  0  0  0  0  0  0  0  0  0  0
   -1.2304    0.2104    0.0000 C   0  0  0  0  0  0  0  0  0  0  0  0
    0.0545   -0.5636    0.0000 C   0  0  0  0  0  0  0  0  0  0  0  0
    1.3672    0.1621    0.0000 C   0  0  0  0  0  0  0  0  0  0  0  0
    2.6521   -0.6119    0.0000 C   0  0  0  0  0  0  0  0  0  0  0  0
    3.9649    0.1138    0.0000 C   0  0  0  0  0  0  0  0  0  0  0  0
    5.2497   -0.6602    0.0000 C   0  0  0  0  0  0  0  0  0  0  0  0
    6.5625    0.0655    0.0000 C   0  0  0  0  0  0  0  0  0  0  0  0
    7.8474   -0.7085    0.0000 C   0  0  0  0  0  0  0  0  0  0  0  0
    9.1601    0.0172    0.0000 C   0  0  0  0  0  0  0  0  0  0  0  0
   10.4450   -0.7569    0.0000 C   0  0  0  0  0  0  0  0  0  0  0  0
   11.7577   -0.0311    0.0000 O   0  0  0  0  0  0  0  0  0  0  0  0
   13.0426   -0.8052    0.0000 C   0  0  0  0  0  0  0  0  0  0  0  0
   13.0147   -2.3049    0.0000 O   0  0  0  0  0  0  0  0  0  0  0  0
   14.3554   -0.0795    0.0000 C   0  0  0  0  0  0  0  0  0  0  0  0
   15.6402   -0.8535    0.0000 C   0  0  0  0  0  0  0  0  0  0  0  0
   16.9530   -0.1278    0.0000 C   0  0  0  0  0  0  0  0  0  0  0  0
   16.9809    1.3720    0.0000 C   0  0  0  0  0  0  0  0  0  0  0  0
   18.2937    2.0977    0.0000 C   0  0  0  0  0  0  0  0  0  0  0  0
   19.5785    1.3237    0.0000 C   0  0  0  0  0  0  0  0  0  0  0  0
   20.8913    2.0494    0.0000 O   0  0  0  0  0  0  0  0  0  0  0  0
   19.5506   -0.1761    0.0000 C   0  0  0  0  0  0  0  0  0  0  0  0
   18.2379   -0.9018    0.0000 C   0  0  0  0  0  0  0  0  0  0  0  0
  1  2  1  0
  2  3  1  0
  3  4  1  0
  4  5  1  0
  5  6  1  0
  6  7  1  0
  7  8  1  0
  8  9  1  0
  9 10  1  0
 10 11  1  0
 11 12  1  0
 12 13  1  0
 13 14  1  0
 14 15  1  0
 15 16  1  0
 16 17  1  0
 17 18  1  0
 18 19  1  0
 19 20  1  0
 20 21  1  0
 21 22  1  0
 22 23  1  0
 23 24  1  0
 24 25  1  0
 25 26  1  0
 26 27  1  0
 27 28  1  0
 28 29  1  0
 29 30  1  0
 30 31  2  0
 30 32  1  0
 32 33  2  3
 33 34  1  0
 34 35  2  0
 35 36  1  0
 36 37  2  0
 37 38  1  0
 37 39  1  0
 39 40  2  0
 40 34  1  0
M  END
>  <identifier>  (24) 
CNP0247821.0

>  <canonical_smiles>  (24) 
CCCCCCCCCCCCCCCCCCCCCCCCCCCCOC(=O)C=CC1=CC=C(O)C=C1

>  <standard_inchi>  (24) 
InChI=1S/C37H64O3/c1-2-3-4-5-6-7-8-9-10-11-12-13-14-15-16-17-18-19-20-21-22-23-24-25-26-27-34-40-37(39)33-30-35-28-31-36(38)32-29-35/h28-33,38H,2-27,34H2,1H3

>  <standard_inchi_key>  (24) 
CWHBUKZWMZSTEA-UHFFFAOYSA-N

>  <name>  (24) 
101959-38-0

>  <iupac_name>  (24) 
octacosyl 3-(4-hydroxyphenyl)prop-2-enoate

>  <annotation_level>  (24) 
5

>  <total_atom_count>  (24) 
104

>  <heavy_atom_count>  (24) 
40

>  <molecular_weight>  (24) 
556.92

>  <exact_molecular_weight>  (24) 
556.48555

>  <molecular_formula>  (24) 
C37H64O3

>  <alogp>  (24) 
12.11

>  <topological_polar_surface_area>  (24) 
46.53

>  <rotatable_bond_count>  (24) 
29

>  <hydrogen_bond_acceptors>  (24) 
3

>  <hydrogen_bond_donors>  (24) 
1

>  <hydrogen_bond_acceptors_lipinski>  (24) 
3

>  <hydrogen_bond_donors_lipinski>  (24) 
1

>  <lipinski_rule_of_five_violations>  (24) 
2

>  <aromatic_rings_count>  (24) 
1

>  <qed_drug_likeliness>  (24) 
0.06

>  <formal_charge>  (24) 
0

>  <fractioncsp3>  (24) 
0.76

>  <number_of_minimal_rings>  (24) 
1

>  <van_der_walls_volume>  (24) 
611.81

>  <contains_sugar>  (24) 
False

>  <contains_ring_sugars>  (24) 
False

>  <contains_linear_sugars>  (24) 
False

>  <murcko_framework>  (24) 
c1ccccc1

>  <np_likeness>  (24) 
0.31

>  <chemical_class>  (24) 
Cinnamic acids and derivatives

>  <chemical_sub_class>  (24) 
Hydroxycinnamic acids and derivatives

>  <chemical_super_class>  (24) 
Phenylpropanoids and polyketides

>  <direct_parent_classification>  (24) 
Hydroxycinnamic acids

>  <np_classifier_pathway>  (24) 
nan

>  <np_classifier_superclass>  (24) 
nan

>  <np_classifier_class>  (24) 
nan

>  <np_classifier_is_glycoside>  (24) 
False

>  <organisms>  (24) 
Cyrtopodium macrobulbon|Eriosema chinense|Euphorbia hirta|Rosa rugosa

>  <collections>  (24) 
Australian natural products|BIOFACQUIM|CMAUP (cCollective molecular activities of useful plants)|Latin America dataset|NPASS|Super Natural II|TCMDB-Taiwan (Traditional Chinese Medicine database)|TCMID (Traditional Chinese Medicine Integrated Database)|UNPD (Universal Natural Products Database)|ZINC NP

>  <dois>  (24) 
10.1016/j.jep.2014.05.006|10.1016/j.phytochem.2013.06.004

>  <synonyms>  (24) 
octacosyl 3-(4-hydroxyphenyl)prop-2-enoate|DTXSID50761093|n-octacosyl-trans-p-coumarate|octacosyl (Z)-p-coumarate

>  <cas>  (24) 
nan

$$$$

     RDKit          2D

 23 24  0  0  0  0  0  0  0  0999 V2000
    1.6139   -3.4784    0.0000 O   0  0  0  0  0  0  0  0  0  0  0  0
    2.8547   -2.6355    0.0000 C   0  0  0  0  0  0  0  0  0  0  0  0
    2.7451   -1.1395    0.0000 C   0  0  0  0  0  0  0  0  0  0  0  0
    1.3948   -0.4864    0.0000 O   0  0  0  0  0  0  0  0  0  0  0  0
    1.2852    1.0096    0.0000 C   0  0  0  0  0  0  0  0  0  0  0  0
   -0.0651    1.6627    0.0000 O   0  0  0  0  0  0  0  0  0  0  0  0
   -1.3059    0.8199    0.0000 C   0  0  0  0  0  0  0  0  0  0  0  0
   -2.6563    1.4730    0.0000 O   0  0  0  0  0  0  0  0  0  0  0  0
   -3.8971    0.6301    0.0000 C   0  0  0  0  0  0  0  0  0  0  0  0
   -5.2474    1.2832    0.0000 C   0  0  0  0  0  0  0  0  0  0  0  0
   -5.3569    2.7792    0.0000 O   0  0  0  0  0  0  0  0  0  0  0  0
   -3.7875   -0.8659    0.0000 C   0  0  0  0  0  0  0  0  0  0  0  0
   -5.0283   -1.7087    0.0000 O   0  0  0  0  0  0  0  0  0  0  0  0
   -2.4372   -1.5190    0.0000 C   0  0  0  0  0  0  0  0  0  0  0  0
   -2.3276   -3.0150    0.0000 O   0  0  0  0  0  0  0  0  0  0  0  0
   -1.1964   -0.6761    0.0000 C   0  0  0  0  0  0  0  0  0  0  0  0
    0.1540   -1.3293    0.0000 O   0  0  0  0  0  0  0  0  0  0  0  0
    2.5260    1.8525    0.0000 C   0  0  0  0  0  0  0  0  0  0  0  0
    2.4165    3.3485    0.0000 O   0  0  0  0  0  0  0  0  0  0  0  0
    3.8764    1.1993    0.0000 C   0  0  0  0  0  0  0  0  0  0  0  0
    5.1172    2.0422    0.0000 O   0  0  0  0  0  0  0  0  0  0  0  0
    3.9859   -0.2967    0.0000 C   0  0  0  0  0  0  0  0  0  0  0  0
    5.3362   -0.9498    0.0000 O   0  0  0  0  0  0  0  0  0  0  0  0
  1  2  1  0
  3  2  1  1
  3  4  1  0
  4  5  1  0
  5  6  1  6
  7  6  1  6
  7  8  1  0
  8  9  1  0
  9 10  1  1
 10 11  1  0
  9 12  1  0
 12 13  1  6
 12 14  1  0
 14 15  1  1
 14 16  1  0
 16 17  1  6
  5 18  1  0
 18 19  1  6
 18 20  1  0
 20 21  1  1
 20 22  1  0
 22 23  1  6
 22  3  1  0
 16  7  1  0
M  END
>  <identifier>  (25) 
CNP0217590.1

>  <canonical_smiles>  (25) 
OC[C@H]1O[C@H](O[C@H]2O[C@H](CO)[C@@H](O)[C@H](O)[C@H]2O)[C@H](O)[C@@H](O)[C@@H]1O

>  <standard_inchi>  (25) 
InChI=1S/C12H22O11/c13-1-3-5(15)7(17)9(19)11(21-3)23-12-10(20)8(18)6(16)4(2-14)22-12/h3-20H,1-2H2/t3-,4-,5-,6-,7+,8+,9-,10-,11-,12-/m1/s1

>  <standard_inchi_key>  (25) 
HDTRYLNUVZCQOY-LIZSDCNHSA-N

>  <name>  (25) 
trehalose

>  <iupac_name>  (25) 
(2~{R},3~{S},4~{S},5~{R},6~{R})-2-(hydroxymethyl)-6-[(2~{R},3~{R},4~{S},5~{S},6~{R})-3,4,5-trihydroxy-6-(hydroxymethyl)tetrahydropyran-2-yl]oxy-tetrahydropyran-3,4,5-triol

>  <annotation_level>  (25) 
5

>  <total_atom_count>  (25) 
45

>  <heavy_atom_count>  (25) 
23

>  <molecular_weight>  (25) 
342.3

>  <exact_molecular_weight>  (25) 
342.11621

>  <molecular_formula>  (25) 
C12H22O11

>  <alogp>  (25) 
-5.40

>  <topological_polar_surface_area>  (25) 
189.53

>  <rotatable_bond_count>  (25) 
4

>  <hydrogen_bond_acceptors>  (25) 
11

>  <hydrogen_bond_donors>  (25) 
8

>  <hydrogen_bond_acceptors_lipinski>  (25) 
11

>  <hydrogen_bond_donors_lipinski>  (25) 
8

>  <lipinski_rule_of_five_violations>  (25) 
2

>  <aromatic_rings_count>  (25) 
0

>  <qed_drug_likeliness>  (25) 
0.24

>  <formal_charge>  (25) 
0

>  <fractioncsp3>  (25) 
1.00

>  <number_of_minimal_rings>  (25) 
2

>  <van_der_walls_volume>  (25) 
283.34

>  <contains_sugar>  (25) 
True

>  <contains_ring_sugars>  (25) 
True

>  <contains_linear_sugars>  (25) 
False

>  <murcko_framework>  (25) 
O1CCCCC1OC2OCCCC2

>  <np_likeness>  (25) 
1.58

>  <chemical_class>  (25) 
Organooxygen compounds

>  <chemical_sub_class>  (25) 
Carbohydrates and carbohydrate conjugates

>  <chemical_super_class>  (25) 
Organic oxygen compounds

>  <direct_parent_classification>  (25) 
Monosaccharides

>  <np_classifier_pathway>  (25) 
Carbohydrates

>  <np_classifier_superclass>  (25) 
Saccharides

>  <np_classifier_class>  (25) 
Disaccharides

>  <np_classifier_is_glycoside>  (25) 
True

>  <organisms>  (25) 
Agaricus campestris|Bjerkandera adusta|Dacrycarpus imbricatus|Escherichia coli|Forrestia mollissima|Hermes grandis|Homo sapiens|Leontonyx spathulatus|Linum usitatissimum|Mus musculus|Ophiocordyceps sinensis|Phyllanthus corcovadensis|Pogostemon cablin|Raphanus raphanistrum|Saccharomyces cerevisiae|Selaginella involvens|Selaginella nothohybrida|Streptomyces YIM 56130|Streptomyces coelicolor A3(2)

>  <collections>  (25) 
Australian natural products|BIOFACQUIM|CMAUP (cCollective molecular activities of useful plants)|ChEBI NPs|ChemSpider NPs|DrugBankNP|FooDB|Latin America dataset|NPASS|NPAtlas|Phyto4Health|StreptomeDB|Super Natural II|TCMDB-Taiwan (Traditional Chinese Medicine database)|VietHerb

>  <dois>  (25) 
10.1016/j.foodres.2018.12.046|10.1016/j.jep.2015.01.031|10.1016/j.molbiopara.2012.08.006|10.1038/msb.2011.65|10.1038/nbt.2488|10.1080/14786419.2020.1758092|10.1089/ind.2013.0013|10.1248/cpb.59.1430

>  <synonyms>  (25) 
99-20-7|D-Trehalose|D-(+)-Trehalose|Mycose|alpha|alpha-trehalose|Ergot sugar|alpha-D-Trehalose|Cabaletta|Mushroom sugar|Natural trehalose|Thealoz|Treha|D-(+)-Trehalose| anhydrous|alpha-D-glucopyranosyl-alpha-D-glucopyranoside|Trehaose|CHEBI:16551|alpha|alpha'-D-Trehalose|Trehalose P|TREHALOSE| DIHYDRATE|UNII-B8WCK70T7I|B8WCK70T7I|NSC 2093|NSC-2093|EINECS 202-739-6|alpha-D-Glucopyranoside| alpha-D-glucopyranosyl|MFCD00006628|(2R|2'R|3S|3'S|4S|4'S|5R|5'R|6R|6'R)-6|6'-oxybis(2-(hydroxymethyl)tetrahydro-2H-pyran-3|4|5-triol)|.alpha.|.alpha.-Trehalose|TREHALOSE (USP-RS)|TREHALOSE USP-RS|(2R|3S|4S|5R|6R)-2-(hydroxymethyl)-6-(2R|3R|4S|5S|6R)-3|4|5-trihydroxy-6-(hydroxymethyl)oxan-2-yloxyoxane-3|4|5-triol|TRE|Trehalose| alpha|alpha'-|Trehalose INN:BAN:NF|CHEBI:27082|Trehalose (8CI)|alpha-alpha-Trehalose|D-trehalose-anhydrous|2b1q|TREHALOSE FCC|.alpha.-d-Glucopyranosyl-.alpha.-d-glucopyranoside|delta-trehalose-anhydrous|TREHALOSE MI|TREHALOSE INCI|bmse000125|bmse000876|?|?'-TREHALOSE|SCHEMBL8739|TREHALOSE WHO-DD|CHEMBL1236395|DTXSID3048102|CHEBI:140775|HMS3886N22|alpha-D-Glcp-(11)-alpha-D-Glcp|HY-N1132|BDBM50235450|s9348|a-D-Glucopyranosyl a-D-glucopyranoside|AKOS016010347|AM83982|CCG-208048|DB12310|SMP1_000299|NCGC00248923-01|AS-10470|CS-0016421|NS00015235|T0331|T0832|C01083|F14769|EN300-7445442|A854452|Q421773|alpha-D-Glucopyranoside| a-D-glucopyranosyl (9CI)|BRD-K54028654-001-01-8|1-(1->4)-alpha-D-glucosyln-alpha-D-glucopyranoside|Z2417819595|695EE371-8DF9-4915-942E-8B5EA4C7CF09|trehalose|\u0152\u00b1-\u0152\u00b1-trehalose

>  <cas>  (25) 
99-20-7

$$$$

     RDKit          2D

 42 42  0  0  0  0  0  0  0  0999 V2000
  -25.9428    0.6337    0.0000 C   0  0  0  0  0  0  0  0  0  0  0  0
  -24.6566   -0.1381    0.0000 C   0  0  0  0  0  0  0  0  0  0  0  0
  -23.3451    0.5899    0.0000 C   0  0  0  0  0  0  0  0  0  0  0  0
  -22.0589   -0.1819    0.0000 C   0  0  0  0  0  0  0  0  0  0  0  0
  -20.7474    0.5461    0.0000 C   0  0  0  0  0  0  0  0  0  0  0  0
  -19.4612   -0.2257    0.0000 C   0  0  0  0  0  0  0  0  0  0  0  0
  -18.1497    0.5023    0.0000 C   0  0  0  0  0  0  0  0  0  0  0  0
  -16.8635   -0.2694    0.0000 C   0  0  0  0  0  0  0  0  0  0  0  0
  -15.5520    0.4586    0.0000 C   0  0  0  0  0  0  0  0  0  0  0  0
  -14.2658   -0.3132    0.0000 C   0  0  0  0  0  0  0  0  0  0  0  0
  -12.9543    0.4148    0.0000 C   0  0  0  0  0  0  0  0  0  0  0  0
  -11.6681   -0.3570    0.0000 C   0  0  0  0  0  0  0  0  0  0  0  0
  -10.3566    0.3710    0.0000 C   0  0  0  0  0  0  0  0  0  0  0  0
   -9.0704   -0.4008    0.0000 C   0  0  0  0  0  0  0  0  0  0  0  0
   -7.7589    0.3272    0.0000 C   0  0  0  0  0  0  0  0  0  0  0  0
   -6.4727   -0.4446    0.0000 C   0  0  0  0  0  0  0  0  0  0  0  0
   -5.1612    0.2834    0.0000 C   0  0  0  0  0  0  0  0  0  0  0  0
   -3.8750   -0.4883    0.0000 C   0  0  0  0  0  0  0  0  0  0  0  0
   -2.5635    0.2397    0.0000 C   0  0  0  0  0  0  0  0  0  0  0  0
   -1.2773   -0.5321    0.0000 C   0  0  0  0  0  0  0  0  0  0  0  0
    0.0342    0.1959    0.0000 C   0  0  0  0  0  0  0  0  0  0  0  0
    1.3205   -0.5759    0.0000 C   0  0  0  0  0  0  0  0  0  0  0  0
    2.6319    0.1521    0.0000 C   0  0  0  0  0  0  0  0  0  0  0  0
    3.9182   -0.6197    0.0000 C   0  0  0  0  0  0  0  0  0  0  0  0
    5.2296    0.1083    0.0000 C   0  0  0  0  0  0  0  0  0  0  0  0
    6.5159   -0.6635    0.0000 C   0  0  0  0  0  0  0  0  0  0  0  0
    7.8274    0.0645    0.0000 C   0  0  0  0  0  0  0  0  0  0  0  0
    9.1136   -0.7072    0.0000 C   0  0  0  0  0  0  0  0  0  0  0  0
   10.4251    0.0208    0.0000 C   0  0  0  0  0  0  0  0  0  0  0  0
   11.7113   -0.7510    0.0000 C   0  0  0  0  0  0  0  0  0  0  0  0
   13.0228   -0.0230    0.0000 O   0  0  0  0  0  0  0  0  0  0  0  0
   14.3090   -0.7948    0.0000 C   0  0  0  0  0  0  0  0  0  0  0  0
   14.2837   -2.2946    0.0000 O   0  0  0  0  0  0  0  0  0  0  0  0
   15.6205   -0.0668    0.0000 C   0  0  0  0  0  0  0  0  0  0  0  0
   16.9067   -0.8386    0.0000 C   0  0  0  0  0  0  0  0  0  0  0  0
   18.2182   -0.1106    0.0000 C   0  0  0  0  0  0  0  0  0  0  0  0
   18.2435    1.3892    0.0000 C   0  0  0  0  0  0  0  0  0  0  0  0
   19.5550    2.1172    0.0000 C   0  0  0  0  0  0  0  0  0  0  0  0
   20.8412    1.3454    0.0000 C   0  0  0  0  0  0  0  0  0  0  0  0
   22.1527    2.0734    0.0000 O   0  0  0  0  0  0  0  0  0  0  0  0
   20.8159   -0.1544    0.0000 C   0  0  0  0  0  0  0  0  0  0  0  0
   19.5044   -0.8824    0.0000 C   0  0  0  0  0  0  0  0  0  0  0  0
  1  2  1  0
  2  3  1  0
  3  4  1  0
  4  5  1  0
  5  6  1  0
  6  7  1  0
  7  8  1  0
  8  9  1  0
  9 10  1  0
 10 11  1  0
 11 12  1  0
 12 13  1  0
 13 14  1  0
 14 15  1  0
 15 16  1  0
 16 17  1  0
 17 18  1  0
 18 19  1  0
 19 20  1  0
 20 21  1  0
 21 22  1  0
 22 23  1  0
 23 24  1  0
 24 25  1  0
 25 26  1  0
 26 27  1  0
 27 28  1  0
 28 29  1  0
 29 30  1  0
 30 31  1  0
 31 32  1  0
 32 33  2  0
 32 34  1  0
 34 35  2  3
 35 36  1  0
 36 37  2  0
 37 38  1  0
 38 39  2  0
 39 40  1  0
 39 41  1  0
 41 42  2  0
 42 36  1  0
M  END
>  <identifier>  (26) 
CNP0251201.0

>  <canonical_smiles>  (26) 
CCCCCCCCCCCCCCCCCCCCCCCCCCCCCCOC(=O)C=CC1=CC=C(O)C=C1

>  <standard_inchi>  (26) 
InChI=1S/C39H68O3/c1-2-3-4-5-6-7-8-9-10-11-12-13-14-15-16-17-18-19-20-21-22-23-24-25-26-27-28-29-36-42-39(41)35-32-37-30-33-38(40)34-31-37/h30-35,40H,2-29,36H2,1H3

>  <standard_inchi_key>  (26) 
DUIIKPOJUKGTSI-UHFFFAOYSA-N

>  <name>  (26) 
143200-86-6

>  <iupac_name>  (26) 
triacontyl 3-(4-hydroxyphenyl)prop-2-enoate

>  <annotation_level>  (26) 
5

>  <total_atom_count>  (26) 
110

>  <heavy_atom_count>  (26) 
42

>  <molecular_weight>  (26) 
584.97

>  <exact_molecular_weight>  (26) 
584.51685

>  <molecular_formula>  (26) 
C39H68O3

>  <alogp>  (26) 
12.89

>  <topological_polar_surface_area>  (26) 
46.53

>  <rotatable_bond_count>  (26) 
31

>  <hydrogen_bond_acceptors>  (26) 
3

>  <hydrogen_bond_donors>  (26) 
1

>  <hydrogen_bond_acceptors_lipinski>  (26) 
3

>  <hydrogen_bond_donors_lipinski>  (26) 
1

>  <lipinski_rule_of_five_violations>  (26) 
2

>  <aromatic_rings_count>  (26) 
1

>  <qed_drug_likeliness>  (26) 
0.05

>  <formal_charge>  (26) 
0

>  <fractioncsp3>  (26) 
0.77

>  <number_of_minimal_rings>  (26) 
1

>  <van_der_walls_volume>  (26) 
646.49

>  <contains_sugar>  (26) 
False

>  <contains_ring_sugars>  (26) 
False

>  <contains_linear_sugars>  (26) 
False

>  <murcko_framework>  (26) 
c1ccccc1

>  <np_likeness>  (26) 
0.30

>  <chemical_class>  (26) 
Cinnamic acids and derivatives

>  <chemical_sub_class>  (26) 
Hydroxycinnamic acids and derivatives

>  <chemical_super_class>  (26) 
Phenylpropanoids and polyketides

>  <direct_parent_classification>  (26) 
Hydroxycinnamic acids

>  <np_classifier_pathway>  (26) 
nan

>  <np_classifier_superclass>  (26) 
nan

>  <np_classifier_class>  (26) 
nan

>  <np_classifier_is_glycoside>  (26) 
False

>  <organisms>  (26) 
Acacia sparsiflora|Achyranthes bidentata|Agave shawii|Alaria crispa|Ambrosia grayi|Anatheca montagnei|Ania latifolia|Anvillea garcinii|Arenaria juncea|Astrantia major|Baccharis gaudichaudiana|Baeomyces roseus|Bitis arietans|Camellia sasanqua|Carpinus cordata|Cassia javanica subsp. nodosa|Cladonia japonica|Convallaria keiskei|Cyrtopodium macrobulbon|Cystoseira usneoides|Dirca occidentalis|Drypetes littoralis|Edgeworthia gardneri|Eucalyptus regnans|Euphorbia iberica|Evasterias troschelii|Evodiopanax innovans|Grindelia perennis|Hopea jucunda|Khaya grandifoliola|Lecidea speirodes|Micromonas pusilla|Myrtus tomentosa|Neobulgaria pura|Noccaea caerulescens|Pachybasium candidum|Pinna nobilis|Plumbago pulchella|Plumeria alba|Polygala ruwenzoriensis|Raputia simulans|Rhizobium etli|Rosa hybrid cultivar|Rumex conglomeratus|Sarcotragus spinosulus|Senecio desfontainei|Silene inflata|Syzygium jambos|Telekia speciosa|Thesium humile|Tilia vulgaris|Werneria decora

>  <collections>  (26) 
BIOFACQUIM|CMAUP (cCollective molecular activities of useful plants)|ConMedNP|KNApSaCK|Latin America dataset|Mitishamba database|NPASS|Super Natural II|UNPD (Universal Natural Products Database)

>  <dois>  (26) 
10.1016/j.jep.2014.05.006

>  <synonyms>  (26) 
Triacontyl 3-(4-hydroxyphenyl)prop-2-enoate|DTXSID80771105|n-triacontyl-trans-p-coumarate|Defuscin

>  <cas>  (26) 
nan

$$$$

     RDKit          2D

 10 10  0  0  0  0  0  0  0  0999 V2000
   -3.9403    0.4737    0.0000 C   0  0  0  0  0  0  0  0  0  0  0  0
   -2.9317   -0.6366    0.0000 O   0  0  0  0  0  0  0  0  0  0  0  0
   -1.4658   -0.3183    0.0000 C   0  0  0  0  0  0  0  0  0  0  0  0
   -1.0086    1.1103    0.0000 C   0  0  0  0  0  0  0  0  0  0  0  0
    0.4573    1.4286    0.0000 C   0  0  0  0  0  0  0  0  0  0  0  0
    1.4658    0.3183    0.0000 C   0  0  0  0  0  0  0  0  0  0  0  0
    2.9317    0.6366    0.0000 C   0  0  0  0  0  0  0  0  0  0  0  0
    3.9403   -0.4737    0.0000 O   0  0  0  0  0  0  0  0  0  0  0  0
    1.0086   -1.1103    0.0000 C   0  0  0  0  0  0  0  0  0  0  0  0
   -0.4573   -1.4286    0.0000 C   0  0  0  0  0  0  0  0  0  0  0  0
  1  2  1  0
  2  3  1  0
  3  4  2  0
  4  5  1  0
  5  6  2  0
  6  7  1  0
  7  8  1  0
  6  9  1  0
  9 10  2  0
 10  3  1  0
M  END
>  <identifier>  (27) 
CNP0301946.0

>  <canonical_smiles>  (27) 
COC1=CC=C(CO)C=C1

>  <standard_inchi>  (27) 
InChI=1S/C8H10O2/c1-10-8-4-2-7(6-9)3-5-8/h2-5,9H,6H2,1H3

>  <standard_inchi_key>  (27) 
MSHFRERJPWKJFX-UHFFFAOYSA-N

>  <name>  (27) 
4-METHOXYBENZYL ALCOHOL

>  <iupac_name>  (27) 
(4-methoxyphenyl)methanol

>  <annotation_level>  (27) 
5

>  <total_atom_count>  (27) 
20

>  <heavy_atom_count>  (27) 
10

>  <molecular_weight>  (27) 
138.17

>  <exact_molecular_weight>  (27) 
138.06808

>  <molecular_formula>  (27) 
C8H10O2

>  <alogp>  (27) 
1.19

>  <topological_polar_surface_area>  (27) 
29.46

>  <rotatable_bond_count>  (27) 
2

>  <hydrogen_bond_acceptors>  (27) 
2

>  <hydrogen_bond_donors>  (27) 
1

>  <hydrogen_bond_acceptors_lipinski>  (27) 
2

>  <hydrogen_bond_donors_lipinski>  (27) 
1

>  <lipinski_rule_of_five_violations>  (27) 
0

>  <aromatic_rings_count>  (27) 
1

>  <qed_drug_likeliness>  (27) 
0.66

>  <formal_charge>  (27) 
0

>  <fractioncsp3>  (27) 
0.25

>  <number_of_minimal_rings>  (27) 
1

>  <van_der_walls_volume>  (27) 
133.23

>  <contains_sugar>  (27) 
False

>  <contains_ring_sugars>  (27) 
False

>  <contains_linear_sugars>  (27) 
False

>  <murcko_framework>  (27) 
c1ccccc1

>  <np_likeness>  (27) 
0.23

>  <chemical_class>  (27) 
Phenol ethers

>  <chemical_sub_class>  (27) 
Anisoles

>  <chemical_super_class>  (27) 
Benzenoids

>  <direct_parent_classification>  (27) 
Anisoles

>  <np_classifier_pathway>  (27) 
nan

>  <np_classifier_superclass>  (27) 
nan

>  <np_classifier_class>  (27) 
nan

>  <np_classifier_is_glycoside>  (27) 
False

>  <organisms>  (27) 
Acacia dealbata|Acanthopanax ricinifolius|Albizia Julibrissin|Anacardium occidentale|Anchusa officinalis|Calocera viscosa|Caryopteris mongholica|Cyrtopodium macrobulbon|Dalbergia rubiginosa|Eucalyptus melliodora|Euphorbia kansui|Foeniculum vulgare|Gastrodia elata|Illicium verum|Ipomoea purpurea|Laurencia papillosa|Leucetta microrhaphis|Mappia foetida|Mesembryanthemum tortuosum|Metapenaeus macleayi|Monomorium delagoense|Pharbitis nil|Pimpinella anisum|Ramalina terebrata|Satureja atropatana

>  <collections>  (27) 
Australian natural products|BIOFACQUIM|CMAUP (cCollective molecular activities of useful plants)|EMNPD|FooDB|InterBioScreen Ltd|Latin America dataset|NPASS|Phyto4Health|Super Natural II|UNPD (Universal Natural Products Database)

>  <dois>  (27) 
10.1016/j.jep.2014.05.006|10.1021/jf60224a046|10.1080/02757540.2015.1050004

>  <synonyms>  (27) 
105-13-5|(4-Methoxyphenyl)methanol|Anisyl alcohol|Anise alcohol|p-Methoxybenzyl alcohol|Benzenemethanol| 4-methoxy-|Anisic alcohol|p-Anisol alcohol|4-Methoxybenzenemethanol|Benzyl alcohol| p-methoxy-|FEMA No. 2099|4-Anisylalcohol|NSC 2151|MFCD00004653|4-Methoxybenzyl-d2Alcohol|7N6XGV3U49|DTXSID6044357|NSC-2151|Anisalcohol| p-|4-(methyloxy)phenylmethanol|Anisyl alcohol (natural)|(4-(METHYLOXY)PHENYL)METHANOL|CCRIS 5111|4-METHOXY-7-13C-BENZYL ALCOHOL|EINECS 203-273-6|METHOXYBENZYLALCOHOL|BRN 0636654|UNII-7N6XGV3U49|Anisalkohol|p-anisalcohol|AI3-01170|ar-anisyl alcohol|JandaJel(TM)-Wang|4-methoxy-benzylalcohol|4-(Hydroxymethyl)anisole|para-methoxybenzyl alcohol|bmse010025|EC 203-273-6|ANISE ALCOHOL MI|DSSTox_CID_24357|DSSTox_RID_82376|4-methoxyphenylmethyl alcohol|DSSTox_GSID_47486|SCHEMBL27329|WLN: Q1R DO1|ANISE ALCOHOL INCI|ANISYL ALCOHOL FCC|4-06-00-05909 (Beilstein Handbook Reference)|ANISYL ALCOHOL FHFI|4-Methoxybenzyl alcohol| 98%|CHEMBL294431|DTXCID4024357|FEMA 2099|PARA METHOXYBENZYL ALCOHOL|1-methoxy-4-hydroxymethyl-benzene|CHEBI:193647|BENZENEMETHANOL|AR-METHOXY-|BCP26725|STR00774|Tox21_301115|Tox21_302521|BBL027471|STL146342|Anisyl alcohol| >=98%| FCC| FG|AKOS000249369|Anisyl alcohol| natural| >=98%| FG|CS-W016493|PB47798|PS-4037|NCGC00248292-01|NCGC00255015-01|NCGC00256684-01|CAS-105-13-5|CAS-1331-81-3|DB-003500|4-Methoxybenzyl alcohol| analytical standard|AM20020146|M0107|NS00009442|EN300-16200|A15090|Anisyl alcohol 1000 microg\/mL in Acetonitrile|D77792|Q548873|J-501422|Z54603098|F0001-0102|InChI=1\/C8H10O2\/c1-10-8-4-2-7(6-9)3-5-8\/h2-5|9H|6H2|1H|JandaJel(TM)-Wang| 100-200 mesh| extent of labeling: 1.0 mmol\/g loading| 2 % cross-linked

>  <cas>  (27) 
105-13-5|1331-81-3

$$$$

     RDKit          2D

  9  9  0  0  0  0  0  0  0  0999 V2000
   -3.4653    0.6606    0.0000 O   0  0  0  0  0  0  0  0  0  0  0  0
   -2.5353   -0.5163    0.0000 C   0  0  0  0  0  0  0  0  0  0  0  0
   -1.0511   -0.2995    0.0000 C   0  0  0  0  0  0  0  0  0  0  0  0
   -0.4968    1.0944    0.0000 C   0  0  0  0  0  0  0  0  0  0  0  0
    0.9874    1.3113    0.0000 C   0  0  0  0  0  0  0  0  0  0  0  0
    1.9174    0.1343    0.0000 C   0  0  0  0  0  0  0  0  0  0  0  0
    3.4016    0.3512    0.0000 O   0  0  0  0  0  0  0  0  0  0  0  0
    1.3631   -1.2595    0.0000 C   0  0  0  0  0  0  0  0  0  0  0  0
   -0.1211   -1.4764    0.0000 C   0  0  0  0  0  0  0  0  0  0  0  0
  1  2  2  0
  2  3  1  0
  3  4  2  0
  4  5  1  0
  5  6  2  0
  6  7  1  0
  6  8  1  0
  8  9  2  0
  9  3  1  0
M  END
>  <identifier>  (28) 
CNP0230702.0

>  <canonical_smiles>  (28) 
O=CC1=CC=C(O)C=C1

>  <standard_inchi>  (28) 
InChI=1S/C7H6O2/c8-5-6-1-3-7(9)4-2-6/h1-5,9H

>  <standard_inchi_key>  (28) 
RGHHSNMVTDWUBI-UHFFFAOYSA-N

>  <name>  (28) 
4-hydroxybenzaldehyde

>  <iupac_name>  (28) 
4-hydroxybenzaldehyde

>  <annotation_level>  (28) 
5

>  <total_atom_count>  (28) 
15

>  <heavy_atom_count>  (28) 
9

>  <molecular_weight>  (28) 
122.12

>  <exact_molecular_weight>  (28) 
122.03678

>  <molecular_formula>  (28) 
C7H6O2

>  <alogp>  (28) 
1.20

>  <topological_polar_surface_area>  (28) 
37.30

>  <rotatable_bond_count>  (28) 
1

>  <hydrogen_bond_acceptors>  (28) 
2

>  <hydrogen_bond_donors>  (28) 
1

>  <hydrogen_bond_acceptors_lipinski>  (28) 
2

>  <hydrogen_bond_donors_lipinski>  (28) 
1

>  <lipinski_rule_of_five_violations>  (28) 
0

>  <aromatic_rings_count>  (28) 
1

>  <qed_drug_likeliness>  (28) 
0.57

>  <formal_charge>  (28) 
0

>  <fractioncsp3>  (28) 
0.00

>  <number_of_minimal_rings>  (28) 
1

>  <van_der_walls_volume>  (28) 
111.45

>  <contains_sugar>  (28) 
False

>  <contains_ring_sugars>  (28) 
False

>  <contains_linear_sugars>  (28) 
False

>  <murcko_framework>  (28) 
c1ccccc1

>  <np_likeness>  (28) 
0.82

>  <chemical_class>  (28) 
Organooxygen compounds

>  <chemical_sub_class>  (28) 
Carbonyl compounds

>  <chemical_super_class>  (28) 
Organic oxygen compounds

>  <direct_parent_classification>  (28) 
Hydroxybenzaldehydes

>  <np_classifier_pathway>  (28) 
Shikimates and Phenylpropanoids

>  <np_classifier_superclass>  (28) 
Phenolic acids (C6-C1)

>  <np_classifier_class>  (28) 
Shikimic acids and derivatives

>  <np_classifier_is_glycoside>  (28) 
False

>  <organisms>  (28) 
Acanthophyllum sordidum|Achlys triphylla|Acinetobacter baumannii|Acinetobacter calcoaceticus|Aconitum habaense|Aconitum soongaricum|Aconitum tanguticum|Aconitum zuccarini|Acorus tatarinowii|Aesculus hippocastanum|Aka coralliphagum|Albizia Julibrissin|Albizia procera|Alchornea cordifolia|Alectoria ochroleuca|Alexandrium excavatum|Alkanna cappadocica|Aloe microstigma|Alpinia blepharocalyx|Alpinia galanga|Alstonia angustiloba|Alstonia undulifolia|Amomum daniellii|Amomum sulcatum|Amsonia tabernaemontana|Amycolatopsis azurea|Anastatica hierochuntica|Anchinoe paupertas|Andrographis viscosula|Annona cherimola|Anthocercis albicans|Aphelandra chamissoniana|Aplidium multiplicatum|Aplysina cauliformis|Arabidopsis thaliana|Aralidium pinnatifidum|Arbutus unedo|Artemisia dentata|Artemisia giraldii|Artemisia pectinata|Artemisia porrecta|Aspergillus microcysticus|Asplenium normale|Asteriscus aquaticus|Atalantia racemosa|Atalantia wightii|Austrobaileya scandens|Avena sativa|Axinella agnata|Axinella verrucosa|Baccharis grandicapitulata|Bacterium from|Balanophora japonica|Beesia calthifolia|Begonia nantoensis|Bersama swinnyi|Betula platyphylla|Bipolaris bicolor|Blainvillea latifolia|Bletilla formosana|Blumea densiflora|Boletinus paluster|Bonnemaisonia asparagoides|Boschniakia rossica|Bosistoa floydii|Botrychium ternatum|Botryllus giganteum|Bougainvillea glabra|Breonia chinensis|Brucea javanica|Bryopsis pennata|Buddleja cordata|Bulbophyllum protractum|Buphane fischeri|Bursera kerberi|Bursera tonkinensis|Calcarisporium thermophilum|Calystegia pubescens|Campylotropis hirtella|Canarium schweinfurthii|Capparis ovata|Carpobrotus edulis|Carthamus tinctorius|Carya cathayensis|Cassia artemisioides|Cassine papillosa|Castanea crenata|Centaurea dealbata|Centrolobium tomentosum|Cephalonomia gallicola|Ceratophyllum submersum|Ceropegia dichotoma|Chamaecyparis formosensis|Chamaecyparis pisifera|Charpentiera obovata|Cheilanthes marantae|Chelidonura fulvipunctata|Chenopodium formosanum|Chrozophora prostrata|Cinamomum cassia|Cinnamomum aromaticum|Cinnamomum kotoense|Cinnamomum subavenium|Cinnamomum subavenium MIQ.|Cinnamomum tenuifolium|Cirsium arvense|Citrus yuko|Clathria prolifera|Clathria pyramida|Clerodendrum trichotomum|Clinacanthus nutans|Coffea liberica var. dewevrei|Common rush|Conus pulicarius|Corallina rubens|Cortinarius vinosipes|Corydalis persica|Corynanthe pachyceras|Corynebacterium glutamicum|Costasiella ocellifera|Cota tinctoria|Crambe tatarica|Cratoxylum formosum|Cremastra appendiculata|Creosphaeria sassafras|Crinum moorei|Crotalaria candicans|Crotalaria stolzii|Croton draco Schltdl.& Cham.|Croton hutchinsonianus|Croton montevidensis|Cryptomeria japonica|Cudrania tricuspidata|Cullen corylifolium|Curculigo capitulata|Curcuma aeruginosa|Curcuma comosa|Cynoglossum amabile|Cypripedium calceolus|Cyrtopodium macrobulbon|Daemonorops draco|Dalea elegans|Datisca glomerata|Delisea elegans|Delphinium giraldii|Dendrobium loddigesii|Dermocybe cardinalis|Dianthus superbus|Dianthus superbus var.longicalycinus (MAXIM.) WILL|Dioscorea olfersiana|Diospyros canaliculata|Diospyros eriantha|Diospyros glaucifolia|Distephanus angulifolius|Dorstenia prorepens|Dracocephalum kotschyi|Drymaria diandra|Ecballium elaterium|Echinus microtuberculatus|Elsholtzia ciliata|Elymnias thryallis|Emericellopsis minima|Engelhardia roxburghiana|Epimedium brevicornu|Epimedium brevicornum|Epimedium grandiflorum|Epimedium koreanum|Epimedium pubescens|Epimedium sagittatum|Epimedium sempervirens|Epimedium wushanense|Equisetum hiemale|Eria japonica|Eucalyptus albens|Eucalyptus apodophylla|Eucalyptus globulus subsp. bicostata|Eucalyptus sideroxylon|Euclea crispa|Euonymus fortunei|Euonymus grandiflorus|Euphorbia jaxartica|Euphorbia resinifera|Euploca racemosa|Eurycoma longifolia|Excoecaria acerifolia|FOOD SAKE|Fagus fusca|Ficus beecheyana|Flammulina velutipes|Flyriella parryi|Fritillaria ningguoensis|Fructus galangae|Fructus syzygii|Fructus xanthii sibirici|Fusarium avenaceum|Fusarium sacchari|Garrya laurifolia|Gastrodia elata|Geigeria schinzii|Glycosmis macrophylla|Glycosmis pseudoracemosa|Goniothalamus undulatus|Gonocaryum calleryanum|Goupia glabra|Gutierrezia dracunculoides|Gymnadenia conopsea R.BR.|Gypsophila perfoliata|Hedysarum gmelini|Hedysarum sachalinense|Helenium integrifolium|Helichrysum angustifolium|Helichrysum auriceps|Helichrysum sutherlandii|Helipterum gnaphaloides|Herrania albiflora|Heterosigma akashiwo|Hoffmannia strigillosa|Homo sapiens|Hortonia floribunda|Hubertia tomentosa|Humulus lupulus|Hyacinthaceae|Hydrangea chinensis|Hygrophila erecta|Hygrophorus eburneus|Hymenocallis arenicola|Hymenoxys microcephala|Hypericum polyanthemum|Ilyocoris cimicoides|Inocybe aeruginascens|Inula grantioides|Iotrochota birotulata|Iotrochota purpurea|Isodictya erinacea|Jacobaea incana|Juncus effusus|Juniperus drupacea|Juniperus horizontalis|Juniperus rigida|Juniperus rigida var. conferta|Juniperus scopulorum|Lactuca laciniata|Laggera alata|Lampranthus sociorum|Lasianthaea podocephala|Lathyrus tingitanus|Laurencia papillosa|Lecidea carpathica|Lemaireocereus griseus|Leontice kiangnanensis|Lepechinia caulescens|Ligularia stenocephala Matsum.et Koidz.|Ligustrum obtusifolium|Lindera obtusiloba|Lippia carviodora|Litchi chinensis|Lithothamnion corallioides|Lonicera japonica|Lophiostoma vaginatispora|Lophocereus marginatus|Lotus ucrainicus|Lupinus cosentinii|Lycopodium spp.|Lyophyllum connatum|Macrococculus pomiferus|Magnolia officinalis|Magnolia ovata|Malva rotundifolia|Maprounea guianensis|Marah oregana|Martensia denticulata|Medinilla magnifica|Medium grandiflorum|Melampodium leucanthum|Melanargia galathea|Mentha cardiaca|Mesua ferrea|Metridium senile|Micromelum integerrimum|Micromonospora echinospora|Microtropis fokienensis|Millettia erythrocalyx|Millettia pinnata|Monanchora unguiculata|Monopteryx uaucu|Morella pensylvanica|Moringa oleifera|Mostuea brunonis|Murraya paniculata|Mus musculus|Mycobacterium leprae|Myelobia smerintha|Myrica nana|Myristica cagayanensis|Nauclea rhynchophylla|Negombata magnifica|Nemuaron humboldtii|Niphates digitalis|Oecophylla smaragdina|Onobrychis bobrovii|Ononis spinosa|Ononis vaginalis|Ophidiaster ophidianus|Ophryosporus charua|Ormosia dasycarpa|Pachycereus pringlei|Panax spinosus|Papaver glaucum|Papaver persicum|Papaver pseudocanescens|Papaver radicatum|Papaver somniferum|Parmelia metastrigosa|Parmelia pokornyi|Pellacalyx axillaris|Penicillium alutaceum|Penicillium cyclopium|Pentaceraster regulus|Pentaclethra macrophylla|Periploca sepium|Peritassa campestris|Pertusaria amara|Perymenium mendezii|Pestalotiopsis oenotherae|Petteria ramentacea|Peucedanum oroselinum|Phebalium dentatum|Phellinus igniarius|Phellodendron amurense|Phellodendron japonicum MAXIM|Phlomis crinita|Phoebe formosana|Phragmites communis|Phyllanthus oligospermus|Phyllostachys edulis|Physalis alkekengi|Picea glauca|Picea rubra|Pinus glauca|Piper brachystachyum|Pisonia aculeata|Plakortis lita|Plectosphaerella cucumerina|Plectranthus caninus|Plectranthus myrianthus|Pleione bulbocodioides|Pleione yunnanensis|Plocama pendula|Plumbago zeylanica|Pneumatospora obcoronata|Podospora curvicolla|Polyalthia stenopetala|Polygonum flaccidum|Posidonia oceanica|Prorocentrum micans|Prosopis kuntzei|Pseudocyphellaria australiensis|Pseudomonas fluorescens|Pseudotsuga japonica|Pseudotsuga sinensis var. wilsoniana|Pseudowintera colorata|Psidium acutangulum|Psilostrophe cooperi|Psoralea corylifolia|Pteris semipinnata|Pteris spinulosa|Pteris vittata|Pterocarpus marsupium|Pterocaulon virgatum|Pyropia tenera|Quercus imbricaria|Quercus laurifolia|Ranunculus ternatus|Rapanea lancifolia|Rauvolfia salicifolia|Relicina samoensis|Renealmia alpinia|Rhinacanthus nasutus|Rhizoplaca baranowii|Rhodiola semenovii|Rhododendron mucronulatum|Roemeria refracta|Rubus idaeus|Russula sardonia|Salmonella enterica subsp. enterica serovar bovismorbificans|Salvia divaricata|Salvia hispanica|Salvia sessei|Sambucus williamsii|Sarcophyton flexuosum|Sarcophyton latum|Saussurea cordifolia|Saussurea lappa|Schefflera divaricata|Schlumbergera truncata|Sclerodoris tanya|Scorzonera pseudodivaricata|Scrophularia koelzii|Scutellaria barbata|Selinum libanotis|Senecio cathcartensis|Senecio congestus|Senna spectabilis|Sequoia sempervirens|Sideritis dasygnaphala|Sideritis linearifolia|Sideritis tragoriganum|Siegesbeckia pubescens|Sigesbeckia glabrescens|Sisymbrium austriacum|Solanum andigena|Solanum jamaicense|Solanum tomatillo|Sonneratia caseolaris|Sorghum bicolor|Sparganium stoloniferum|Spencermartinsia viticola|Sphacelaria arctica|Spiracantha cornifolia|Spiraea formosana|Stellaria media|Stenocereus thurberi|Stephania zippeliana|Stereocaulon japonicum|Stevia rebaudiana|Streptomyces cyaneofuscatus|Streptomyces lividoclavatus|Streptomyces melanogenes|Streptomyces parvisporogenes|Streptomyces platensis|Streptomyces wadayamensis|Strophanthus hispidus|Strychnos henningsii|Strychnos spinosa|Styrax benzoin|Styrax tonkinensis|Syncarpia hillii|Talaromyces variabilis|Taraxacum formosanum|Tarchonanthus camphoratus|Tecoma heptaphylla|Tephroseris kirilowii|Tetradium glabrifolium|Thea sasanqua|Tiliacora racemosa|Tithonia rotundifolia|Torreya grandis|Torreya nuncifera|Trifolium alexandrinum|Trifolium strepens|Tristania conferta|Tupistra chinensis|Tylophora tanakae|Ulva lactuca|Urtica dioica|Uruparia lanosa|Verbascum laxum|Vernonia cistifolia|Vernonia scorpioides|Veronica intercedens|Veronica polita|Viscum articulactum|Viscum coloratum|Vitex negundo|Vitex rotundifolia|Vittaria anguste-elongata|Viviparus japonicus|Wardomyces inflatus|Xanthium strumarium|Xenoacremonium recifei|Yponomeuta malinellus|Zanthoxylum ailanthoides|Zanthoxylum wutaiense|Zaocys|Zephyranthes flava|Zingiber officinale|dracocephalum ruyschiana

>  <collections>  (28) 
ANPDB|Australian natural products|BIOFACQUIM|CMAUP (cCollective molecular activities of useful plants)|ChEBI NPs|ConMedNP|DrugBankNP|EMNPD|ETM (Ethiopian Traditional Medicine) DB|Exposome-explorer|FooDB|KNApSaCK|Latin America dataset|Marine Natural Products|NANPDB (Natural Products from Northern African Sources)|NPASS|NPAtlas|NPEdia|Phenol-explorer|Phyto4Health|SANCDB|Super Natural II|TCMDB-Taiwan (Traditional Chinese Medicine database)|TCMID (Traditional Chinese Medicine Integrated Database)|TIPdb (database of Taiwan indigenous plants)|UNPD (Universal Natural Products Database)|VietHerb|p-ANAPL

>  <dois>  (28) 
10.1002/jccs.199400032|10.1016/0031-9422(88)80606-X|10.1016/j.arabjc.2018.01.014|10.1016/j.bmc.2010.01.046|10.1016/j.bmc.2010.01.080|10.1016/j.bmcl.2012.01.062|10.1016/j.jep.2014.05.006|10.1021/acs.jnatprod.0c00756|10.1021/acs.jnatprod.6b00118|10.1021/acs.jnatprod.6b00204|10.1021/acs.jnatprod.8b00989|10.1021/np000496y|10.1021/np0580210|10.1021/np060500r|10.1021/np1008575|10.1021/np300609u|10.1021/np500834d|10.1021/np50112a019|10.1021/np9602325|10.1021/np970293i|10.1038/nature07762

>  <synonyms>  (28) 
p-Hydroxybenzaldehyde|123-08-0|4-Formylphenol|Benzaldehyde| 4-hydroxy-|p-Oxybenzaldehyde|Parahydroxybenzaldehyde|4-HYDROXY-BENZALDEHYDE|USAF M-6|MFCD00006939|NSC 2127|4-Hydroxybenzenecarbonal|4-Hydroxybenzaldehyde-d5|CHEMBL14193|65581-83-1|CHEBI:17597|NSC-2127|O1738X3Y38|4-formyl phenol|EINECS 204-599-1|BRN 0471352|AI3-15366|CCRIS 8911|PARA-HYDROXY BENZALDEHYDE|UNII-O1738X3Y38|4hydroxybenzaldehyde|p-hydroxibezaldehyde|4-Hydroxybenzaldehyde; Bisoprolol Fumarate Imp. S (EP); Bisoprolol Imp. S (EP); Bisoprolol Fumarate Impurity S; Bisoprolol Impurity S|PYRILAMINE_met038|WLN: VHR DQ|bmse000259|bmse000582|bmse010005|SCHEMBL37193|4-Hydroxybenzaldehyde| 98%|4-08-00-00251 (Beilstein Handbook Reference)|BIDD:ER0339|p-Hydroxybenzaldehyde| Pract.|DTXSID8059552|FEMA NO. 3984|HYDROXYBENZALDEHYDE INCI|1k03|P-HYDROXYBENZALDEHYDE MI|BCP26952|CS-D1179|HY-Y0313|STR00705|4-HYDROXYBENZALDEHYDE FHFI|4-Hydroxybenzaldehyde| >=97%| FG|BDBM50177411|BR1235|s6008|STK188428|AKOS000119184|AC-2984|AM10667|DB03560|PS-3635|NCGC00188243-01|4-Hydroxybenzaldehyde| analytical standard|BP-30158|SY003489|4-Hydroxybenzaldehyde| >=95.0% (HPLC)|DB-003763|H0198|NS00014566|EN300-18030|A15180|C00633|H-3800|AB-131\/40191192|BISOPROLOL FUMARATE IMPURITY S EP IMPURITY|Q1953888|4-Hydroxybenzaldehyde| Vetec(TM) reagent grade| 95%|Z57127520|F2190-0635|InChI=1\/C7H6O2\/c8-5-6-1-3-7(9)4-2-6\/h1-5|9|p-Hydroxybenzaldehyde;4-Formylphenol;p-Formylphenol;Bisoprolol Fumarate EP Impurity S

>  <cas>  (28) 
123-08-0|65581-83-1

$$$$

     RDKit          2D

 22 24  0  0  0  0  0  0  0  0999 V2000
    5.5004   -2.3501    0.0000 C   0  0  0  0  0  0  0  0  0  0  0  0
    5.0306   -0.9256    0.0000 O   0  0  0  0  0  0  0  0  0  0  0  0
    3.5620   -0.6202    0.0000 C   0  0  0  0  0  0  0  0  0  0  0  0
    2.5632   -1.7393    0.0000 C   0  0  0  0  0  0  0  0  0  0  0  0
    1.0946   -1.4339    0.0000 C   0  0  0  0  0  0  0  0  0  0  0  0
    0.6248   -0.0093    0.0000 C   0  0  0  0  0  0  0  0  0  0  0  0
   -0.8438    0.2961    0.0000 C   0  0  0  0  0  0  0  0  0  0  0  0
   -1.3135    1.7206    0.0000 C   0  0  0  0  0  0  0  0  0  0  0  0
   -2.7821    2.0260    0.0000 C   0  0  0  0  0  0  0  0  0  0  0  0
   -3.7809    0.9069    0.0000 C   0  0  0  0  0  0  0  0  0  0  0  0
   -5.2495    1.2123    0.0000 O   0  0  0  0  0  0  0  0  0  0  0  0
   -3.3111   -0.5176    0.0000 C   0  0  0  0  0  0  0  0  0  0  0  0
   -4.3099   -1.6367    0.0000 O   0  0  0  0  0  0  0  0  0  0  0  0
   -5.7785   -1.3313    0.0000 C   0  0  0  0  0  0  0  0  0  0  0  0
   -1.8425   -0.8230    0.0000 C   0  0  0  0  0  0  0  0  0  0  0  0
   -1.3727   -2.2476    0.0000 C   0  0  0  0  0  0  0  0  0  0  0  0
    0.0958   -2.5530    0.0000 C   0  0  0  0  0  0  0  0  0  0  0  0
    1.6236    1.1098    0.0000 C   0  0  0  0  0  0  0  0  0  0  0  0
    1.1538    2.5343    0.0000 O   0  0  0  0  0  0  0  0  0  0  0  0
    2.1526    3.6534    0.0000 C   0  0  0  0  0  0  0  0  0  0  0  0
    3.0922    0.8044    0.0000 C   0  0  0  0  0  0  0  0  0  0  0  0
    4.0910    1.9235    0.0000 O   0  0  0  0  0  0  0  0  0  0  0  0
  1  2  1  0
  2  3  1  0
  3  4  2  0
  4  5  1  0
  5  6  2  0
  6  7  1  0
  7  8  2  0
  8  9  1  0
  9 10  2  0
 10 11  1  0
 10 12  1  0
 12 13  1  0
 13 14  1  0
 12 15  2  0
 15 16  1  0
 16 17  1  0
  6 18  1  0
 18 19  1  0
 19 20  1  0
 18 21  2  0
 21 22  1  0
 21  3  1  0
 17  5  1  0
 15  7  1  0
M  END
>  <identifier>  (29) 
CNP0145126.0

>  <canonical_smiles>  (29) 
COC1=CC2=C(C3=CC=C(O)C(OC)=C3CC2)C(OC)=C1O

>  <standard_inchi>  (29) 
InChI=1S/C17H18O5/c1-20-13-8-9-4-5-11-10(6-7-12(18)16(11)21-2)14(9)17(22-3)15(13)19/h6-8,18-19H,4-5H2,1-3H3

>  <standard_inchi_key>  (29) 
IPMAKCYEUXFJTI-UHFFFAOYSA-N

>  <name>  (29) 
nan

>  <iupac_name>  (29) 
1,5,7-trimethoxy-9,10-dihydrophenanthrene-2,6-diol

>  <annotation_level>  (29) 
5

>  <total_atom_count>  (29) 
40

>  <heavy_atom_count>  (29) 
22

>  <molecular_weight>  (29) 
302.33

>  <exact_molecular_weight>  (29) 
302.11542

>  <molecular_formula>  (29) 
C17H18O5

>  <alogp>  (29) 
2.89

>  <topological_polar_surface_area>  (29) 
68.15

>  <rotatable_bond_count>  (29) 
3

>  <hydrogen_bond_acceptors>  (29) 
5

>  <hydrogen_bond_donors>  (29) 
2

>  <hydrogen_bond_acceptors_lipinski>  (29) 
5

>  <hydrogen_bond_donors_lipinski>  (29) 
2

>  <lipinski_rule_of_five_violations>  (29) 
0

>  <aromatic_rings_count>  (29) 
2

>  <qed_drug_likeliness>  (29) 
0.91

>  <formal_charge>  (29) 
0

>  <fractioncsp3>  (29) 
0.29

>  <number_of_minimal_rings>  (29) 
3

>  <van_der_walls_volume>  (29) 
269.30

>  <contains_sugar>  (29) 
False

>  <contains_ring_sugars>  (29) 
False

>  <contains_linear_sugars>  (29) 
False

>  <murcko_framework>  (29) 
c1ccc2c(c1)-c3ccccc3CC2

>  <np_likeness>  (29) 
1.67

>  <chemical_class>  (29) 
Phenanthrenes and derivatives

>  <chemical_sub_class>  (29) 
Phenanthrenes and derivatives

>  <chemical_super_class>  (29) 
Benzenoids

>  <direct_parent_classification>  (29) 
Phenanthrenes and derivatives

>  <np_classifier_pathway>  (29) 
Shikimates and Phenylpropanoids

>  <np_classifier_superclass>  (29) 
Phenanthrenoids

>  <np_classifier_class>  (29) 
Phenanthrenes

>  <np_classifier_is_glycoside>  (29) 
False

>  <organisms>  (29) 
Cymbidium pendulum|Cyrtopodium macrobulbon|Eulophia nuda|Nidema boothii

>  <collections>  (29) 
BIOFACQUIM|KNApSaCK|Latin America dataset|NPEdia|Super Natural II|UNPD (Universal Natural Products Database)

>  <dois>  (29) 
10.1016/j.jep.2014.05.006

>  <synonyms>  (29) 
1 5 7-trimethoxy-9 10-dihydrophenanthrene-2 6-diol|2|6-Dihydroxy-1|5|7-trimethoxy-9|10-dihydrophenanthrene

>  <cas>  (29) 
nan

$$$$

     RDKit          2D

 22 24  0  0  0  0  0  0  0  0999 V2000
   -5.3424   -2.4313    0.0000 C   0  0  0  0  0  0  0  0  0  0  0  0
   -4.9151   -0.9934    0.0000 O   0  0  0  0  0  0  0  0  0  0  0  0
   -3.4563   -0.6445    0.0000 C   0  0  0  0  0  0  0  0  0  0  0  0
   -2.4247   -1.7334    0.0000 C   0  0  0  0  0  0  0  0  0  0  0  0
   -0.9658   -1.3845    0.0000 C   0  0  0  0  0  0  0  0  0  0  0  0
    0.0658   -2.4735    0.0000 C   0  0  0  0  0  0  0  0  0  0  0  0
    1.5247   -2.1246    0.0000 C   0  0  0  0  0  0  0  0  0  0  0  0
    1.9519   -0.6867    0.0000 C   0  0  0  0  0  0  0  0  0  0  0  0
    3.4108   -0.3378    0.0000 C   0  0  0  0  0  0  0  0  0  0  0  0
    4.4424   -1.4267    0.0000 O   0  0  0  0  0  0  0  0  0  0  0  0
    4.0151   -2.8646    0.0000 C   0  0  0  0  0  0  0  0  0  0  0  0
    3.8380    1.1001    0.0000 C   0  0  0  0  0  0  0  0  0  0  0  0
    5.2969    1.4490    0.0000 O   0  0  0  0  0  0  0  0  0  0  0  0
    2.8064    2.1890    0.0000 C   0  0  0  0  0  0  0  0  0  0  0  0
    1.3476    1.8401    0.0000 C   0  0  0  0  0  0  0  0  0  0  0  0
    0.9203    0.4023    0.0000 C   0  0  0  0  0  0  0  0  0  0  0  0
   -0.5385    0.0533    0.0000 C   0  0  0  0  0  0  0  0  0  0  0  0
   -1.5701    1.1423    0.0000 C   0  0  0  0  0  0  0  0  0  0  0  0
   -1.1429    2.5801    0.0000 O   0  0  0  0  0  0  0  0  0  0  0  0
   -2.1745    3.6691    0.0000 C   0  0  0  0  0  0  0  0  0  0  0  0
   -3.0290    0.7934    0.0000 C   0  0  0  0  0  0  0  0  0  0  0  0
   -4.0606    1.8823    0.0000 O   0  0  0  0  0  0  0  0  0  0  0  0
  1  2  1  0
  2  3  1  0
  3  4  2  0
  4  5  1  0
  5  6  2  0
  6  7  1  0
  7  8  2  0
  8  9  1  0
  9 10  1  0
 10 11  1  0
  9 12  2  0
 12 13  1  0
 12 14  1  0
 14 15  2  0
 15 16  1  0
 16 17  2  0
 17 18  1  0
 18 19  1  0
 19 20  1  0
 18 21  2  0
 21 22  1  0
 21  3  1  0
 17  5  1  0
 16  8  1  0
M  END
>  <identifier>  (30) 
CNP0221137.0

>  <canonical_smiles>  (30) 
COC1=CC2=CC=C3C(OC)=C(O)C=CC3=C2C(OC)=C1O

>  <standard_inchi>  (30) 
InChI=1S/C17H16O5/c1-20-13-8-9-4-5-11-10(6-7-12(18)16(11)21-2)14(9)17(22-3)15(13)19/h4-8,18-19H,1-3H3

>  <standard_inchi_key>  (30) 
LLRLPRUFUGWYOL-UHFFFAOYSA-N

>  <name>  (30) 
Denthyrsinin

>  <iupac_name>  (30) 
1,5,7-trimethoxyphenanthrene-2,6-diol

>  <annotation_level>  (30) 
5

>  <total_atom_count>  (30) 
38

>  <heavy_atom_count>  (30) 
22

>  <molecular_weight>  (30) 
300.31

>  <exact_molecular_weight>  (30) 
300.09977

>  <molecular_formula>  (30) 
C17H16O5

>  <alogp>  (30) 
3.43

>  <topological_polar_surface_area>  (30) 
68.15

>  <rotatable_bond_count>  (30) 
3

>  <hydrogen_bond_acceptors>  (30) 
5

>  <hydrogen_bond_donors>  (30) 
2

>  <hydrogen_bond_acceptors_lipinski>  (30) 
5

>  <hydrogen_bond_donors_lipinski>  (30) 
2

>  <lipinski_rule_of_five_violations>  (30) 
0

>  <aromatic_rings_count>  (30) 
3

>  <qed_drug_likeliness>  (30) 
0.73

>  <formal_charge>  (30) 
0

>  <fractioncsp3>  (30) 
0.18

>  <number_of_minimal_rings>  (30) 
3

>  <van_der_walls_volume>  (30) 
261.11

>  <contains_sugar>  (30) 
False

>  <contains_ring_sugars>  (30) 
False

>  <contains_linear_sugars>  (30) 
False

>  <murcko_framework>  (30) 
c1ccc2c(c1)ccc3ccccc32

>  <np_likeness>  (30) 
1.36

>  <chemical_class>  (30) 
Phenanthrenes and derivatives

>  <chemical_sub_class>  (30) 
Phenanthrols

>  <chemical_super_class>  (30) 
Benzenoids

>  <direct_parent_classification>  (30) 
Phenanthrols

>  <np_classifier_pathway>  (30) 
Shikimates and Phenylpropanoids

>  <np_classifier_superclass>  (30) 
Phenanthrenoids

>  <np_classifier_class>  (30) 
Phenanthrenes

>  <np_classifier_is_glycoside>  (30) 
False

>  <organisms>  (30) 
Ariocarpus scapharostrus|Cymbidium pendulum|Cynanchum viminale|Cyrtopodium macrobulbon|Dendrobium densiflorum|Dendrobium thysiflorum|Eulophia nuda|Lanaria lanata|Nidema boothii|Sargassum siliquastrum|Scaphyglottis livida|Selaginella labordei|Syzygium aromaticum|Tamus communis|Thunia alba|Tolpis webbii|cymbidium great flower marie laurencin

>  <collections>  (30) 
BIOFACQUIM|CMAUP (cCollective molecular activities of useful plants)|KNApSaCK|Latin America dataset|NPASS|Super Natural II|TCMDB-Taiwan (Traditional Chinese Medicine database)|UNPD (Universal Natural Products Database)|VietHerb|ZINC NP|p-ANAPL

>  <dois>  (30) 
10.1016/j.jep.2014.05.006|10.1021/np030303h|10.1021/np200788u

>  <synonyms>  (30) 
2|6-Phenanthrenediol| 1|5|7-trimethoxy-|118169-17-8|1|5|7-trimethoxyphenanthrene-2|6-diol|CHEMBL469491|SCHEMBL5804721|DTXSID70472452|HY-N12286|2|6-dihydroxy-1|5|7-trimethoxyphenanthrene|CS-0897291|F92937|Confusarin|Denthyrsinin

>  <cas>  (30) 
118169-17-8

$$$$

     RDKit          2D

 20 21  0  0  0  0  0  0  0  0999 V2000
   -6.3230   -2.1859    0.0000 C   0  0  0  0  0  0  0  0  0  0  0  0
   -4.8230   -2.1758    0.0000 O   0  0  0  0  0  0  0  0  0  0  0  0
   -4.0817   -0.8718    0.0000 C   0  0  0  0  0  0  0  0  0  0  0  0
   -4.8404    0.4222    0.0000 C   0  0  0  0  0  0  0  0  0  0  0  0
   -4.0992    1.7262    0.0000 C   0  0  0  0  0  0  0  0  0  0  0  0
   -4.8579    3.0202    0.0000 O   0  0  0  0  0  0  0  0  0  0  0  0
   -2.5992    1.7363    0.0000 C   0  0  0  0  0  0  0  0  0  0  0  0
   -1.8405    0.4423    0.0000 C   0  0  0  0  0  0  0  0  0  0  0  0
   -0.3405    0.4524    0.0000 C   0  0  0  0  0  0  0  0  0  0  0  0
    0.4182   -0.8416    0.0000 C   0  0  0  0  0  0  0  0  0  0  0  0
    1.9181   -0.8315    0.0000 C   0  0  0  0  0  0  0  0  0  0  0  0
    2.6768   -2.1255    0.0000 C   0  0  0  0  0  0  0  0  0  0  0  0
    4.1768   -2.1154    0.0000 C   0  0  0  0  0  0  0  0  0  0  0  0
    4.9181   -0.8114    0.0000 C   0  0  0  0  0  0  0  0  0  0  0  0
    6.4180   -0.8013    0.0000 O   0  0  0  0  0  0  0  0  0  0  0  0
    4.1594    0.4826    0.0000 C   0  0  0  0  0  0  0  0  0  0  0  0
    4.9006    1.7866    0.0000 O   0  0  0  0  0  0  0  0  0  0  0  0
    4.1419    3.0806    0.0000 C   0  0  0  0  0  0  0  0  0  0  0  0
    2.6594    0.4725    0.0000 C   0  0  0  0  0  0  0  0  0  0  0  0
   -2.5818   -0.8617    0.0000 C   0  0  0  0  0  0  0  0  0  0  0  0
  1  2  1  0
  2  3  1  0
  3  4  2  0
  4  5  1  0
  5  6  1  0
  5  7  2  0
  7  8  1  0
  8  9  1  0
  9 10  1  0
 10 11  1  0
 11 12  2  0
 12 13  1  0
 13 14  2  0
 14 15  1  0
 14 16  1  0
 16 17  1  0
 17 18  1  0
 16 19  2  0
  8 20  2  0
 20  3  1  0
 19 11  1  0
M  END
>  <identifier>  (31) 
CNP0137624.0

>  <canonical_smiles>  (31) 
COC1=CC(O)=CC(CCC2=CC=C(O)C(OC)=C2)=C1

>  <standard_inchi>  (31) 
InChI=1S/C16H18O4/c1-19-14-8-12(7-13(17)10-14)4-3-11-5-6-15(18)16(9-11)20-2/h5-10,17-18H,3-4H2,1-2H3

>  <standard_inchi_key>  (31) 
BMSPEISBKGSBTR-UHFFFAOYSA-N

>  <name>  (31) 
83088-28-2

>  <iupac_name>  (31) 
4-[2-(3-hydroxy-5-methoxy-phenyl)ethyl]-2-methoxy-phenol

>  <annotation_level>  (31) 
5

>  <total_atom_count>  (31) 
38

>  <heavy_atom_count>  (31) 
20

>  <molecular_weight>  (31) 
274.32

>  <exact_molecular_weight>  (31) 
274.12051

>  <molecular_formula>  (31) 
C16H18O4

>  <alogp>  (31) 
2.90

>  <topological_polar_surface_area>  (31) 
58.92

>  <rotatable_bond_count>  (31) 
5

>  <hydrogen_bond_acceptors>  (31) 
4

>  <hydrogen_bond_donors>  (31) 
2

>  <hydrogen_bond_acceptors_lipinski>  (31) 
4

>  <hydrogen_bond_donors_lipinski>  (31) 
2

>  <lipinski_rule_of_five_violations>  (31) 
0

>  <aromatic_rings_count>  (31) 
2

>  <qed_drug_likeliness>  (31) 
0.88

>  <formal_charge>  (31) 
0

>  <fractioncsp3>  (31) 
0.25

>  <number_of_minimal_rings>  (31) 
2

>  <van_der_walls_volume>  (31) 
255.69

>  <contains_sugar>  (31) 
False

>  <contains_ring_sugars>  (31) 
False

>  <contains_linear_sugars>  (31) 
False

>  <murcko_framework>  (31) 
c1ccc(cc1)CCc2ccccc2

>  <np_likeness>  (31) 
0.81

>  <chemical_class>  (31) 
Stilbenes

>  <chemical_sub_class>  (31) 
Stilbenes

>  <chemical_super_class>  (31) 
Phenylpropanoids and polyketides

>  <direct_parent_classification>  (31) 
Stilbenes

>  <np_classifier_pathway>  (31) 
Shikimates and Phenylpropanoids

>  <np_classifier_superclass>  (31) 
Stilbenoids

>  <np_classifier_class>  (31) 
Monomeric stilbenes

>  <np_classifier_is_glycoside>  (31) 
False

>  <organisms>  (31) 
Araliopsis tabouensis|Bletilla formosana|Callophycus serratus|Corydalis conspersa|Cymbidium aloifolium|Cymbidium giganteum|Cyrtopodium macrobulbon|Dendrobium densiflorum|Dendrobium draconis|Dendrobium fimbriatum|Dendrobium nobile|Gynochthodes parvifolia|Ligustrum ovalifolium|Luisia indivisa|Mespilus germanica|Mikania luetzelburgii|Nidema boothii|Periconia circinata|Pittosporum brevicalyx|Sideritis grandiflora|Solanum euacanthum|Tubipora musica|Ungernia victoris|Verbesina turbacensis

>  <collections>  (31) 
BIOFACQUIM|CMAUP (cCollective molecular activities of useful plants)|GNPS (Global Natural Products Social Molecular Networking)|KNApSaCK|Latin America dataset|NPASS|NPEdia|Phyto4Health|Super Natural II|TCMDB-Taiwan (Traditional Chinese Medicine database)|TCMID (Traditional Chinese Medicine Integrated Database)|UNPD (Universal Natural Products Database)|VietHerb|ZINC NP

>  <dois>  (31) 
10.1016/j.bmcl.2014.09.052|10.1016/j.jep.2014.05.006|10.1021/acs.jnatprod.6b00118|10.1021/acs.jnatprod.6b00252|10.1021/np030303h|10.1021/np060449r|10.1021/np500015v

>  <synonyms>  (31) 
Phenol| 4-2-(3-hydroxy-5-methoxyphenyl)ethyl-2-methoxy-|3'|4-dihydroxy-3|5'-dimethoxybibenzyl|CHEMBL219553|DTXSID101287414|BDBM50346823|HY-N10549|CS-0610782|NS00097428|3a(2)|4-Dihydroxy-3|5a(2)-dimethoxybibenzyl|E88569|4-(3-Hydroxy-5-methoxyphenethyl)-2-methoxyphenol|NCGC00386002-01!4-2-(3-hydroxy-5-methoxyphenyl)ethyl-2-methoxyphenol|Gigantol

>  <cas>  (31) 
nan

$$$$

     RDKit          2D

 20 22  0  0  0  0  0  0  0  0999 V2000
   -5.2900   -1.7940    0.0000 C   0  0  0  0  0  0  0  0  0  0  0  0
   -4.6303   -0.4468    0.0000 O   0  0  0  0  0  0  0  0  0  0  0  0
   -3.1338   -0.3445    0.0000 C   0  0  0  0  0  0  0  0  0  0  0  0
   -2.2969   -1.5893    0.0000 C   0  0  0  0  0  0  0  0  0  0  0  0
   -0.8004   -1.4870    0.0000 C   0  0  0  0  0  0  0  0  0  0  0  0
    0.0364   -2.7319    0.0000 C   0  0  0  0  0  0  0  0  0  0  0  0
    1.5329   -2.6295    0.0000 C   0  0  0  0  0  0  0  0  0  0  0  0
    2.1926   -1.2824    0.0000 C   0  0  0  0  0  0  0  0  0  0  0  0
    3.6891   -1.1800    0.0000 C   0  0  0  0  0  0  0  0  0  0  0  0
    4.3487    0.1671    0.0000 C   0  0  0  0  0  0  0  0  0  0  0  0
    5.8452    0.2694    0.0000 O   0  0  0  0  0  0  0  0  0  0  0  0
    3.5119    1.4120    0.0000 C   0  0  0  0  0  0  0  0  0  0  0  0
    2.0154    1.3097    0.0000 C   0  0  0  0  0  0  0  0  0  0  0  0
    1.3557   -0.0375    0.0000 C   0  0  0  0  0  0  0  0  0  0  0  0
   -0.1408   -0.1398    0.0000 C   0  0  0  0  0  0  0  0  0  0  0  0
   -0.9777    1.1050    0.0000 C   0  0  0  0  0  0  0  0  0  0  0  0
   -0.3180    2.4522    0.0000 O   0  0  0  0  0  0  0  0  0  0  0  0
   -1.1549    3.6970    0.0000 C   0  0  0  0  0  0  0  0  0  0  0  0
   -2.4742    1.0027    0.0000 C   0  0  0  0  0  0  0  0  0  0  0  0
   -3.3110    2.2476    0.0000 O   0  0  0  0  0  0  0  0  0  0  0  0
  1  2  1  0
  2  3  1  0
  3  4  2  0
  4  5  1  0
  5  6  2  0
  6  7  1  0
  7  8  2  0
  8  9  1  0
  9 10  2  0
 10 11  1  0
 10 12  1  0
 12 13  2  0
 13 14  1  0
 14 15  2  0
 15 16  1  0
 16 17  1  0
 17 18  1  0
 16 19  2  0
 19 20  1  0
 19  3  1  0
 15  5  1  0
 14  8  1  0
M  END
>  <identifier>  (32) 
CNP0312432.0

>  <canonical_smiles>  (32) 
COC1=CC2=CC=C3C=C(O)C=CC3=C2C(OC)=C1O

>  <standard_inchi>  (32) 
InChI=1S/C16H14O4/c1-19-13-8-10-4-3-9-7-11(17)5-6-12(9)14(10)16(20-2)15(13)18/h3-8,17-18H,1-2H3

>  <standard_inchi_key>  (32) 
VUNWBEIDIFFPMG-UHFFFAOYSA-N

>  <name>  (32) 
72966-94-0

>  <iupac_name>  (32) 
5,7-dimethoxyphenanthrene-2,6-diol

>  <annotation_level>  (32) 
5

>  <total_atom_count>  (32) 
34

>  <heavy_atom_count>  (32) 
20

>  <molecular_weight>  (32) 
270.28

>  <exact_molecular_weight>  (32) 
270.08921

>  <molecular_formula>  (32) 
C16H14O4

>  <alogp>  (32) 
3.42

>  <topological_polar_surface_area>  (32) 
58.92

>  <rotatable_bond_count>  (32) 
2

>  <hydrogen_bond_acceptors>  (32) 
4

>  <hydrogen_bond_donors>  (32) 
2

>  <hydrogen_bond_acceptors_lipinski>  (32) 
4

>  <hydrogen_bond_donors_lipinski>  (32) 
2

>  <lipinski_rule_of_five_violations>  (32) 
0

>  <aromatic_rings_count>  (32) 
3

>  <qed_drug_likeliness>  (32) 
0.70

>  <formal_charge>  (32) 
0

>  <fractioncsp3>  (32) 
0.13

>  <number_of_minimal_rings>  (32) 
3

>  <van_der_walls_volume>  (32) 
236.14

>  <contains_sugar>  (32) 
False

>  <contains_ring_sugars>  (32) 
False

>  <contains_linear_sugars>  (32) 
False

>  <murcko_framework>  (32) 
c1ccc2c(c1)ccc3ccccc32

>  <np_likeness>  (32) 
1.30

>  <chemical_class>  (32) 
Phenanthrenes and derivatives

>  <chemical_sub_class>  (32) 
Phenanthrols

>  <chemical_super_class>  (32) 
Benzenoids

>  <direct_parent_classification>  (32) 
Phenanthrols

>  <np_classifier_pathway>  (32) 
Shikimates and Phenylpropanoids

>  <np_classifier_superclass>  (32) 
Phenanthrenoids

>  <np_classifier_class>  (32) 
Phenanthrenes

>  <np_classifier_is_glycoside>  (32) 
False

>  <organisms>  (32) 
Ariocarpus scapharostrus|Axinyssa tethyoides|Bletilla formosana|Callophycus serratus|Corydalis conspersa|Cyperus pilosus|Cyrtopodium macrobulbon|Dendrobium nobile|Dioscorea bulbifera|Gynochthodes parvifolia|Lebeckia plukenetiana|Ligustrum ovalifolium|Mespilus germanica|Mikania luetzelburgii|Physocarpus intermedius|Pittosporum brevicalyx|Polyporus confluens|Saraca asoca|Sargassum siliquastrum|Securigera securidaca|Sideritis grandiflora|Solanum euacanthum|Syzygium aromaticum|Tamus communis|Thunia alba|Tolpis webbii|Ungernia victoris|cymbidium great flower marie laurencin

>  <collections>  (32) 
Australian natural products|BIOFACQUIM|CMAUP (cCollective molecular activities of useful plants)|KNApSaCK|Latin America dataset|NPASS|NPEdia|Phyto4Health|Super Natural II|TCMDB-Taiwan (Traditional Chinese Medicine database)|TCMID (Traditional Chinese Medicine Integrated Database)|UNPD (Universal Natural Products Database)|VietHerb|ZINC NP

>  <dois>  (32) 
10.1002/cbdv.201000279|10.1016/j.jep.2014.05.006|10.1021/np200788u

>  <synonyms>  (32) 
5|7-dimethoxyphenanthrene-2|6-diol|2|6-Phenanthrenediol| 5|7-dimethoxy-|3|7-DHDMP|CHEMBL1083093|DTXSID40440087|3|7-dihydroxy-2|4-dimethoxyphenanthrene|Ephemeranthol B

>  <cas>  (32) 
nan

$$$$

     RDKit          2D

 22 23  0  0  0  0  0  0  0  0999 V2000
   -8.5730   -0.0694    0.0000 C   0  0  0  0  0  0  0  0  0  0  0  0
   -7.3079   -0.8753    0.0000 C   0  0  0  0  0  0  0  0  0  0  0  0
   -5.9774   -0.1827    0.0000 C   0  0  0  0  0  0  0  0  0  0  0  0
   -4.7123   -0.9886    0.0000 C   0  0  0  0  0  0  0  0  0  0  0  0
   -3.3818   -0.2960    0.0000 C   0  0  0  0  0  0  0  0  0  0  0  0
   -3.3164    1.2026    0.0000 C   0  0  0  0  0  0  0  0  0  0  0  0
   -1.9859    1.8952    0.0000 C   0  0  0  0  0  0  0  0  0  0  0  0
   -0.7208    1.0893    0.0000 C   0  0  0  0  0  0  0  0  0  0  0  0
    0.6097    1.7819    0.0000 N   0  0  0  0  0  0  0  0  0  0  0  0
    1.8748    0.9760    0.0000 C   0  0  0  0  0  0  0  0  0  0  0  0
    1.8094   -0.5226    0.0000 C   0  0  0  0  0  0  0  0  0  0  0  0
    0.4789   -1.2152    0.0000 C   0  0  0  0  0  0  0  0  0  0  0  0
    3.0745   -1.3285    0.0000 C   0  0  0  0  0  0  0  0  0  0  0  0
    3.0091   -2.8271    0.0000 O   0  0  0  0  0  0  0  0  0  0  0  0
    4.4050   -0.6359    0.0000 C   0  0  0  0  0  0  0  0  0  0  0  0
    5.6701   -1.4418    0.0000 O   0  0  0  0  0  0  0  0  0  0  0  0
    7.0006   -0.7492    0.0000 C   0  0  0  0  0  0  0  0  0  0  0  0
    4.4704    0.8627    0.0000 C   0  0  0  0  0  0  0  0  0  0  0  0
    3.2053    1.6686    0.0000 C   0  0  0  0  0  0  0  0  0  0  0  0
    3.2707    3.1672    0.0000 O   0  0  0  0  0  0  0  0  0  0  0  0
   -0.7862   -0.4093    0.0000 C   0  0  0  0  0  0  0  0  0  0  0  0
   -2.1167   -1.1019    0.0000 C   0  0  0  0  0  0  0  0  0  0  0  0
  1  2  1  0
  2  3  1  0
  3  4  1  0
  4  5  1  0
  5  6  2  0
  6  7  1  0
  7  8  2  0
  8  9  1  0
  9 10  1  0
 10 11  2  0
 11 12  1  0
 11 13  1  0
 13 14  2  0
 13 15  1  0
 15 16  1  0
 16 17  1  0
 15 18  2  0
 18 19  1  0
 19 20  2  0
  8 21  1  0
 21 22  2  0
 22  5  1  0
 19 10  1  0
M  END
>  <identifier>  (33) 
CNP0150256.0

>  <canonical_smiles>  (33) 
CCCCC1=CC=C(NC2=C(C)C(=O)C(OC)=CC2=O)C=C1

>  <standard_inchi>  (33) 
InChI=1S/C18H21NO3/c1-4-5-6-13-7-9-14(10-8-13)19-17-12(2)18(21)16(22-3)11-15(17)20/h7-11,19H,4-6H2,1-3H3

>  <standard_inchi_key>  (33) 
RFYQGKUTWAUUJW-UHFFFAOYSA-N

>  <name>  (33) 
2-((4-butylphenyl)amino)-5-methoxy-3-methylcyclohexa-2,5-diene-1,4-dione

>  <iupac_name>  (33) 
2-(4-butylanilino)-5-methoxy-3-methyl-1,4-benzoquinone

>  <annotation_level>  (33) 
5

>  <total_atom_count>  (33) 
43

>  <heavy_atom_count>  (33) 
22

>  <molecular_weight>  (33) 
299.37

>  <exact_molecular_weight>  (33) 
299.15214

>  <molecular_formula>  (33) 
C18H21NO3

>  <alogp>  (33) 
3.40

>  <topological_polar_surface_area>  (33) 
55.40

>  <rotatable_bond_count>  (33) 
6

>  <hydrogen_bond_acceptors>  (33) 
4

>  <hydrogen_bond_donors>  (33) 
1

>  <hydrogen_bond_acceptors_lipinski>  (33) 
4

>  <hydrogen_bond_donors_lipinski>  (33) 
1

>  <lipinski_rule_of_five_violations>  (33) 
0

>  <aromatic_rings_count>  (33) 
1

>  <qed_drug_likeliness>  (33) 
0.82

>  <formal_charge>  (33) 
0

>  <fractioncsp3>  (33) 
0.33

>  <number_of_minimal_rings>  (33) 
2

>  <van_der_walls_volume>  (33) 
287.21

>  <contains_sugar>  (33) 
False

>  <contains_ring_sugars>  (33) 
False

>  <contains_linear_sugars>  (33) 
False

>  <murcko_framework>  (33) 
c1ccc(cc1)NC2=CCC=CC2

>  <np_likeness>  (33) 
0.60

>  <chemical_class>  (33) 
Organooxygen compounds

>  <chemical_sub_class>  (33) 
Carbonyl compounds

>  <chemical_super_class>  (33) 
Organic oxygen compounds

>  <direct_parent_classification>  (33) 
Quinones

>  <np_classifier_pathway>  (33) 
nan

>  <np_classifier_superclass>  (33) 
nan

>  <np_classifier_class>  (33) 
nan

>  <np_classifier_is_glycoside>  (33) 
False

>  <organisms>  (33) 
Xylaria feejeensis

>  <collections>  (33) 
BIOFACQUIM|Latin America dataset

>  <dois>  (33) 
10.1021/acs.jafc.6b01111

>  <synonyms>  (33) 
2-((4-Butylphenyl)amino)-5-methoxy-3-methylcyclohexa-2 5-diene-1 4-dione

>  <cas>  (33) 
nan

$$$$

     RDKit          2D

 18 19  0  0  0  0  0  0  0  0999 V2000
   -5.6455   -2.2965    0.0000 C   0  0  0  0  0  0  0  0  0  0  0  0
   -4.1473   -2.2239    0.0000 O   0  0  0  0  0  0  0  0  0  0  0  0
   -3.4610   -0.8901    0.0000 C   0  0  0  0  0  0  0  0  0  0  0  0
   -4.2729    0.3711    0.0000 C   0  0  0  0  0  0  0  0  0  0  0  0
   -3.5867    1.7049    0.0000 C   0  0  0  0  0  0  0  0  0  0  0  0
   -4.3986    2.9662    0.0000 O   0  0  0  0  0  0  0  0  0  0  0  0
   -2.0884    1.7775    0.0000 C   0  0  0  0  0  0  0  0  0  0  0  0
   -1.2765    0.5162    0.0000 C   0  0  0  0  0  0  0  0  0  0  0  0
    0.2218    0.5888    0.0000 C   0  0  0  0  0  0  0  0  0  0  0  0
    1.0337   -0.6725    0.0000 C   0  0  0  0  0  0  0  0  0  0  0  0
    2.5320   -0.5999    0.0000 C   0  0  0  0  0  0  0  0  0  0  0  0
    3.3439   -1.8612    0.0000 C   0  0  0  0  0  0  0  0  0  0  0  0
    4.8422   -1.7886    0.0000 C   0  0  0  0  0  0  0  0  0  0  0  0
    5.5285   -0.4548    0.0000 C   0  0  0  0  0  0  0  0  0  0  0  0
    4.7165    0.8064    0.0000 C   0  0  0  0  0  0  0  0  0  0  0  0
    5.4028    2.1402    0.0000 O   0  0  0  0  0  0  0  0  0  0  0  0
    3.2183    0.7339    0.0000 C   0  0  0  0  0  0  0  0  0  0  0  0
   -1.9628   -0.8176    0.0000 C   0  0  0  0  0  0  0  0  0  0  0  0
  1  2  1  0
  2  3  1  0
  3  4  2  0
  4  5  1  0
  5  6  1  0
  5  7  2  0
  7  8  1  0
  8  9  1  0
  9 10  1  0
 10 11  1  0
 11 12  2  0
 12 13  1  0
 13 14  2  0
 14 15  1  0
 15 16  1  0
 15 17  2  0
  8 18  2  0
 18  3  1  0
 17 11  1  0
M  END
>  <identifier>  (34) 
CNP0285815.0

>  <canonical_smiles>  (34) 
COC1=CC(O)=CC(CCC2=CC=CC(O)=C2)=C1

>  <standard_inchi>  (34) 
InChI=1S/C15H16O3/c1-18-15-9-12(8-14(17)10-15)6-5-11-3-2-4-13(16)7-11/h2-4,7-10,16-17H,5-6H2,1H3

>  <standard_inchi_key>  (34) 
VYQXIUVIYICVCM-UHFFFAOYSA-N

>  <name>  (34) 
batatasin III

>  <iupac_name>  (34) 
3-[2-(3-hydroxyphenyl)ethyl]-5-methoxy-phenol

>  <annotation_level>  (34) 
5

>  <total_atom_count>  (34) 
34

>  <heavy_atom_count>  (34) 
18

>  <molecular_weight>  (34) 
244.29

>  <exact_molecular_weight>  (34) 
244.10994

>  <molecular_formula>  (34) 
C15H16O3

>  <alogp>  (34) 
2.89

>  <topological_polar_surface_area>  (34) 
49.69

>  <rotatable_bond_count>  (34) 
4

>  <hydrogen_bond_acceptors>  (34) 
3

>  <hydrogen_bond_donors>  (34) 
2

>  <hydrogen_bond_acceptors_lipinski>  (34) 
3

>  <hydrogen_bond_donors_lipinski>  (34) 
2

>  <lipinski_rule_of_five_violations>  (34) 
0

>  <aromatic_rings_count>  (34) 
2

>  <qed_drug_likeliness>  (34) 
0.87

>  <formal_charge>  (34) 
0

>  <fractioncsp3>  (34) 
0.20

>  <number_of_minimal_rings>  (34) 
2

>  <van_der_walls_volume>  (34) 
231.04

>  <contains_sugar>  (34) 
False

>  <contains_ring_sugars>  (34) 
False

>  <contains_linear_sugars>  (34) 
False

>  <murcko_framework>  (34) 
c1ccc(cc1)CCc2ccccc2

>  <np_likeness>  (34) 
0.60

>  <chemical_class>  (34) 
Stilbenes

>  <chemical_sub_class>  (34) 
Stilbenes

>  <chemical_super_class>  (34) 
Phenylpropanoids and polyketides

>  <direct_parent_classification>  (34) 
Stilbenes

>  <np_classifier_pathway>  (34) 
Shikimates and Phenylpropanoids

>  <np_classifier_superclass>  (34) 
Stilbenoids

>  <np_classifier_class>  (34) 
Monomeric stilbenes

>  <np_classifier_is_glycoside>  (34) 
False

>  <organisms>  (34) 
Amsonia tabernaemontana|Anthogonium gracile|Aplophyllum suaveolens|Ariocarpus scapharostrus|Arundina bambusifolia|Bletilla formosana|Bletilla striata|Bulbophyllum fuscopurpureum|Bulbophyllum guttulatum|Bulbophyllum reptans|Calanthe masuca|Callophycus serratus|Clathria pyramida|Coelogyne barbata|Coelogyne corymbosa|Coelogyne elata|Coelogyne flaccida|Coelogyne nitida|Coelogyne ochracea|Coelogyne odorotissima|Coelogyne ovalis|Corydalis conspersa|Cremastra appendiculata|Cymbidium aloifolium|Cyrtopodium andersonii|Cyrtopodium macrobulbon|Dahlia merckii|Dendrobium amoenum|Dendrobium chrysanthum|Dendrobium densiflorum|Dendrobium fimbriatum|Dendrobium graminifolium|Dendrobium herbaceum|Dendrobium lituiflorum|Dendrobium nobile|Dendrobium pierardii|Dendrobium rotundatum|Dendrobium spathaceum|Dendrobium terminale|Dioscorea alata|Dioscorea batatas|Dioscorea batatus|Dioscorea dumetorum|Dioscorea opposita|Dioscorea polystachya|Gymnadenia conopsea|Gynochthodes parvifolia|Ligustrum ovalifolium|Marah oregana|Mespilus germanica|Mikania luetzelburgii|Nidema boothii|Niphates digitalis|Pholidota imbricata|Pittosporum brevicalyx|Pleione bulbocodioides|Pleione yunnanensis|Pteris vittata|Sargassum siliquastrum|Sideritis grandiflora|Sisymbrium austriacum|Solanum euacanthum|Sophora tomentosa|Spiranthes sinensis|Stachys glabra|Syzygium aromaticum|Thunia alba|Tolpis webbii|Ungernia victoris

>  <collections>  (34) 
Australian natural products|BIOFACQUIM|CMAUP (cCollective molecular activities of useful plants)|KNApSaCK|Latin America dataset|NPASS|NPEdia|Phyto4Health|Super Natural II|TCMDB-Taiwan (Traditional Chinese Medicine database)|TCMID (Traditional Chinese Medicine Integrated Database)|TIPdb (database of Taiwan indigenous plants)|UNPD (Universal Natural Products Database)|VietHerb

>  <dois>  (34) 
10.1016/j.jep.2014.05.006|10.1021/acs.jafc.9b01117

>  <synonyms>  (34) 
56684-87-8|3-2-(3-hydroxyphenyl)ethyl-5-methoxyphenol|1-(3-Hydroxy-5-methoxyphenyl)-2-(3-hydroxyphenyl)ethane|3|3'-dihydroxy-5-methoxybibenzyl|BatatasinIII|Batatasin III (4)|Phenol| 3-2-(3-hydroxyphenyl)ethyl-5-methoxy-|CHEMBL450788|SCHEMBL11505373|DTXSID00904195|CHEBI:174263|BDBM246487|EX-A6688|AKOS028112322|MS-23458|DB-290684|HY-122965|CS-0090764|NS00097305|D85191|batatasin III

>  <cas>  (34) 
56684-87-8

$$$$

     RDKit          2D

 26 28  0  0  0  0  0  0  0  0999 V2000
   -7.3292   -2.1725    0.0000 C   0  0  0  0  0  0  0  0  0  0  0  0
   -5.8719   -2.5279    0.0000 O   0  0  0  0  0  0  0  0  0  0  0  0
   -4.8355   -1.4436    0.0000 C   0  0  0  0  0  0  0  0  0  0  0  0
   -5.2563   -0.0038    0.0000 C   0  0  0  0  0  0  0  0  0  0  0  0
   -4.2199    1.0805    0.0000 C   0  0  0  0  0  0  0  0  0  0  0  0
   -4.6408    2.5203    0.0000 O   0  0  0  0  0  0  0  0  0  0  0  0
   -2.7626    0.7251    0.0000 C   0  0  0  0  0  0  0  0  0  0  0  0
   -1.7262    1.8095    0.0000 C   0  0  0  0  0  0  0  0  0  0  0  0
   -2.1471    3.2492    0.0000 O   0  0  0  0  0  0  0  0  0  0  0  0
   -0.2689    1.4541    0.0000 C   0  0  0  0  0  0  0  0  0  0  0  0
    0.7675    2.5385    0.0000 O   0  0  0  0  0  0  0  0  0  0  0  0
    2.2248    2.1831    0.0000 C   0  0  0  0  0  0  0  0  0  0  0  0
    0.1520    0.0144    0.0000 C   0  0  0  0  0  0  0  0  0  0  0  0
    1.6093   -0.3410    0.0000 C   0  0  0  0  0  0  0  0  0  0  0  0
    2.0301   -1.7808    0.0000 C   0  0  0  0  0  0  0  0  0  0  0  0
    3.4874   -2.1362    0.0000 C   0  0  0  0  0  0  0  0  0  0  0  0
    4.5238   -1.0518    0.0000 C   0  0  0  0  0  0  0  0  0  0  0  0
    5.9811   -1.4072    0.0000 O   0  0  0  0  0  0  0  0  0  0  0  0
    6.4020   -2.8469    0.0000 C   0  0  0  0  0  0  0  0  0  0  0  0
    4.1030    0.3879    0.0000 C   0  0  0  0  0  0  0  0  0  0  0  0
    5.1394    1.4723    0.0000 O   0  0  0  0  0  0  0  0  0  0  0  0
    6.5967    1.1169    0.0000 C   0  0  0  0  0  0  0  0  0  0  0  0
    2.6457    0.7433    0.0000 C   0  0  0  0  0  0  0  0  0  0  0  0
   -0.8845   -1.0700    0.0000 O   0  0  0  0  0  0  0  0  0  0  0  0
   -2.3418   -0.7146    0.0000 C   0  0  0  0  0  0  0  0  0  0  0  0
   -3.3782   -1.7990    0.0000 C   0  0  0  0  0  0  0  0  0  0  0  0
  1  2  1  0
  2  3  1  0
  3  4  2  0
  4  5  1  0
  5  6  1  0
  5  7  2  0
  7  8  1  0
  8  9  2  0
  8 10  1  0
 10 11  1  0
 11 12  1  0
 10 13  2  0
 13 14  1  0
 14 15  2  0
 15 16  1  0
 16 17  2  0
 17 18  1  0
 18 19  1  0
 17 20  1  0
 20 21  1  0
 21 22  1  0
 20 23  2  0
 13 24  1  0
 24 25  1  0
 25 26  2  0
 26  3  1  0
 25  7  1  0
 23 14  1  0
M  END
>  <identifier>  (35) 
CNP0324505.0

>  <canonical_smiles>  (35) 
COC1=CC(O)=C2C(=O)C(OC)=C(C3=CC=C(OC)C(OC)=C3)OC2=C1

>  <standard_inchi>  (35) 
InChI=1S/C19H18O7/c1-22-11-8-12(20)16-15(9-11)26-18(19(25-4)17(16)21)10-5-6-13(23-2)14(7-10)24-3/h5-9,20H,1-4H3

>  <standard_inchi_key>  (35) 
HHGPYJLEJGNWJA-UHFFFAOYSA-N

>  <name>  (35) 
Retusin

>  <iupac_name>  (35) 
2-(3,4-dimethoxyphenyl)-5-hydroxy-3,7-dimethoxy-chromen-4-one

>  <annotation_level>  (35) 
5

>  <total_atom_count>  (35) 
44

>  <heavy_atom_count>  (35) 
26

>  <molecular_weight>  (35) 
358.35

>  <exact_molecular_weight>  (35) 
358.10525

>  <molecular_formula>  (35) 
C19H18O7

>  <alogp>  (35) 
3.20

>  <topological_polar_surface_area>  (35) 
87.36

>  <rotatable_bond_count>  (35) 
5

>  <hydrogen_bond_acceptors>  (35) 
7

>  <hydrogen_bond_donors>  (35) 
1

>  <hydrogen_bond_acceptors_lipinski>  (35) 
7

>  <hydrogen_bond_donors_lipinski>  (35) 
1

>  <lipinski_rule_of_five_violations>  (35) 
0

>  <aromatic_rings_count>  (35) 
3

>  <qed_drug_likeliness>  (35) 
0.75

>  <formal_charge>  (35) 
0

>  <fractioncsp3>  (35) 
0.21

>  <number_of_minimal_rings>  (35) 
3

>  <van_der_walls_volume>  (35) 
306.32

>  <contains_sugar>  (35) 
False

>  <contains_ring_sugars>  (35) 
False

>  <contains_linear_sugars>  (35) 
False

>  <murcko_framework>  (35) 
O1c2ccccc2CC=C1c3ccccc3

>  <np_likeness>  (35) 
0.99

>  <chemical_class>  (35) 
Flavonoids

>  <chemical_sub_class>  (35) 
O-methylated flavonoids

>  <chemical_super_class>  (35) 
Phenylpropanoids and polyketides

>  <direct_parent_classification>  (35) 
3-O-methylated flavonoids

>  <np_classifier_pathway>  (35) 
Shikimates and Phenylpropanoids

>  <np_classifier_superclass>  (35) 
Flavonoids

>  <np_classifier_class>  (35) 
Flavonols

>  <np_classifier_is_glycoside>  (35) 
False

>  <organisms>  (35) 
Acalypha australis|Aconitum variegatum|Aeonium lindleyi|Aframomum giganteum|Agastache rugosus|Amomum koenigii|Amorphophallus konjac|Andromeda polifolia|Aniba santalodora|Argyrochosma pilifera|Ariocarpus retusus|Artemisia annua|Artemisia rupestris|Astragalus circassicus|Bacillus amyloliquefaciens|Beilschmiedia madang|Bethencourtia palmensis|Betula nigra|Boesenbergia pandurata|Boswellia ovalifoliolata|Breonia chinensis|Brickellia eupatorioides|Bridelia ferruginea|Calamus strictus|Campanula choziatowskyi|Campylotropis hirtella|Centaurea scoparia|Centaurea sonchifolia|Ceropegia dichotoma|Cheilanthes fragrans|Citrus sinensis|Colchicum filifolium|Cordia multispicata|Crinum moorei|Crotalaria candicans|Crotalaria spartioides|Croton ciliatoglanduliferus|Cryptomeria japonica|Cynoglossum macrostylum|Dalbergia retusa|Dendrobium loddigesii|Dialium excelsum|Distephanus angulifolius|Drymaria cordata|Dysidea fragilis|Eria japonica|Erythrina hypaphorus|Esox lucius|Etmopterus spinax|Eucalyptus apodophylla|Eucalyptus globulus subsp. bicostata|Eucryphia|Eucryphia lucida|Eucryphia milliganii|Euphorbia hylonoma|Evodia merrillii|Fadogia agrestis|Genista lydia|Geranium macrorrhizum L.|Glycosmis macrophylla|Grindelia nana|Grindelia tenella|Gymnopetalum integrifolium|Gypsophila perfoliata|Hardenbergia violacea|Heliotropium scabrum|Helleborus macranthus|Hypericum polyanthemum|Iris kashmiriana|Juniperus drupacea|Lactarius mitissimus|Larrea cuneifolia|Lemonia spectabilis|Lepechinia urbanii|Libanothamnus occultus|Lonchocarpus chiricanus|Macaranga triloba|Maclura cochinchinensis|Martensia denticulata|Matricaria sabulosa|Matsucoccus josephi|Melicope semecarpifolia|Mentha cardiaca|Mentzelia decapetala|Methanobrevibacter arboriphilus|Mimosa pigra|Mirabilis viscosa|Mucuna holtonii|Nepytia freemani|Nothofagus cunninghamii|Ononis spinosa|Orgyia pseudotsugata|Ostrya carpinifolia|Parmotrema nilgherrense|Parthenium spp.|Pentaclethra macrophylla|Periploca sepium|Petunia axillaris subsp. parodii|Plectranthus myrianthus|Podocarpus dacrydioides|Pogostemon cablin|Preussia terricola|Pteris bella|Pterocaulon serrulatum|Pterocaulon virgatum|Pulsatilla chinensis|Quercus marilandica|Rhodiola semenovii|Rubia akane|Salix rosmarinifolia|Salvia lavanduloides|Salvia patens|Salvia sessei|Salvia virgata|Scapania bolanderi|Senecio oryzetorum|Senecio platyphylloides|Senecio retrorsus|Senecio roseiflorus|Senecio vulgaris|Siegesbeckia jorullensis|Siegesbeckia orientalis|Solanum paludosum|Sonneratia caseolaris|Sphaeria rousseliana|Spiranthes australis (R.BROWN) LINDL.|Stephania dielsiana|Stephania zippeliana|Streptomyces flaveus|Talaromyces variabilis|Thalassiosira weissflogii|Trichilia heudelotii|Tristania conferta|Urolepis hecatantha|Vernonia cistifolia|Veronica polita|Vincetoxicum forrestii|Vitex negundo|Xanthocephalum gymnospermoides

>  <collections>  (35) 
ANPDB|AnalytiCon Discovery NPs|Australian natural products|BIOFACQUIM|CMAUP (cCollective molecular activities of useful plants)|ConMedNP|FooDB|GNPS (Global Natural Products Social Molecular Networking)|KNApSaCK|Latin America dataset|Mitishamba database|NANPDB (Natural Products from Northern African Sources)|NPACT|NPASS|NPEdia|Phyto4Health|Super Natural II|TCMDB-Taiwan (Traditional Chinese Medicine database)|TCMID (Traditional Chinese Medicine Integrated Database)|TIPdb (database of Taiwan indigenous plants)|UEFS (Natural Products Databse of the UEFS)|UNPD (Universal Natural Products Database)|VietHerb|ZINC NP

>  <dois>  (35) 
10.1016/s0305-1978(99)00045-9|10.1021/acs.jafc.5b02842|10.1021/np0704349

>  <synonyms>  (35) 
1245-15-4|Quercetin-3|7|3'|4'-tetramethyl ether|Retusin (Ariocarpus)|5-hydroxy-3|7|3'|4'-tetramethoxyflavone|2-(3|4-dimethoxyphenyl)-5-hydroxy-3|7-dimethoxychromen-4-one|NSC-61837|3|3'|4'|7-Tetramethylquercetin|Flavone| 5-hydroxy-3|3'|4'|7-tetramethoxy-|NSC 61837|4H-1-Benzopyran-4-one| 2-(3|4-dimethoxyphenyl)-5-hydroxy-3|7-dimethoxy-|CHEMBL77966|Quercetin 3|3'|4'|7-O-tetramethyl ether|M8591903SD|2-(3|4-Dimethoxyphenyl)-5-hydroxy-3|7-dimethoxy-4-benzopyrone|Retusine (VAN)|Quercetin tetramethylether|NSC408169|UNII-M8591903SD|EINECS 214-991-4|KY73|MEGxp0_001881|SCHEMBL1421755|ACon1_000513|DTXSID60924839|CHEBI:144861|Flavone|3'|4'|7-tetramethoxy-|HY-N6829|BDBM50338974|LMPK12112770|MFCD00017420|NSC618937|Quercetin| 3|7|3'|4'-tetramethyl|3|7|3'|4'-tetra-O-methylquercetin|AKOS040760672|CCG-214740|NCGC00169008-01|MS-25624|NCI60_003907|NCI60_005562|DB-041775|CS-0100247|NS00044870|3|3'|4'|7-TETRA-O-METHYLQUERCETIN|E87140|Q7317388|BRD-K49158532-001-01-9|HYDROXY-3|3'|4'|7-TETRAMETHOXYFLAVONE| 5-|Retusin|Tetramethylquercetin|retusin

>  <cas>  (35) 
1245-15-4

$$$$

     RDKit          2D

 25 27  0  0  0  0  0  0  0  0999 V2000
   -7.1968   -1.8607    0.0000 C   0  0  0  0  0  0  0  0  0  0  0  0
   -5.7633   -2.3024    0.0000 O   0  0  0  0  0  0  0  0  0  0  0  0
   -4.6641   -1.2817    0.0000 C   0  0  0  0  0  0  0  0  0  0  0  0
   -4.9984    0.1806    0.0000 C   0  0  0  0  0  0  0  0  0  0  0  0
   -3.8992    1.2012    0.0000 C   0  0  0  0  0  0  0  0  0  0  0  0
   -4.2335    2.6635    0.0000 O   0  0  0  0  0  0  0  0  0  0  0  0
   -2.4656    0.7596    0.0000 C   0  0  0  0  0  0  0  0  0  0  0  0
   -1.3664    1.7802    0.0000 C   0  0  0  0  0  0  0  0  0  0  0  0
   -1.7007    3.2425    0.0000 O   0  0  0  0  0  0  0  0  0  0  0  0
    0.0671    1.3386    0.0000 C   0  0  0  0  0  0  0  0  0  0  0  0
    1.1663    2.3593    0.0000 O   0  0  0  0  0  0  0  0  0  0  0  0
    2.5998    1.9176    0.0000 C   0  0  0  0  0  0  0  0  0  0  0  0
    0.4014   -0.1237    0.0000 C   0  0  0  0  0  0  0  0  0  0  0  0
    1.8349   -0.5653    0.0000 C   0  0  0  0  0  0  0  0  0  0  0  0
    2.1692   -2.0275    0.0000 C   0  0  0  0  0  0  0  0  0  0  0  0
    3.6027   -2.4692    0.0000 C   0  0  0  0  0  0  0  0  0  0  0  0
    4.7019   -1.4485    0.0000 C   0  0  0  0  0  0  0  0  0  0  0  0
    6.1355   -1.8901    0.0000 O   0  0  0  0  0  0  0  0  0  0  0  0
    4.3676    0.0138    0.0000 C   0  0  0  0  0  0  0  0  0  0  0  0
    5.4668    1.0344    0.0000 O   0  0  0  0  0  0  0  0  0  0  0  0
    6.9004    0.5928    0.0000 C   0  0  0  0  0  0  0  0  0  0  0  0
    2.9341    0.4554    0.0000 C   0  0  0  0  0  0  0  0  0  0  0  0
   -0.6978   -1.1443    0.0000 O   0  0  0  0  0  0  0  0  0  0  0  0
   -2.1313   -0.7027    0.0000 C   0  0  0  0  0  0  0  0  0  0  0  0
   -3.2306   -1.7233    0.0000 C   0  0  0  0  0  0  0  0  0  0  0  0
  1  2  1  0
  2  3  1  0
  3  4  2  0
  4  5  1  0
  5  6  1  0
  5  7  2  0
  7  8  1  0
  8  9  2  0
  8 10  1  0
 10 11  1  0
 11 12  1  0
 10 13  2  0
 13 14  1  0
 14 15  2  0
 15 16  1  0
 16 17  2  0
 17 18  1  0
 17 19  1  0
 19 20  1  0
 20 21  1  0
 19 22  2  0
 13 23  1  0
 23 24  1  0
 24 25  2  0
 25  3  1  0
 24  7  1  0
 22 14  1  0
M  END
>  <identifier>  (36) 
CNP0392086.0

>  <canonical_smiles>  (36) 
COC1=CC(O)=C2C(=O)C(OC)=C(C3=CC=C(O)C(OC)=C3)OC2=C1

>  <standard_inchi>  (36) 
InChI=1S/C18H16O7/c1-22-10-7-12(20)15-14(8-10)25-17(18(24-3)16(15)21)9-4-5-11(19)13(6-9)23-2/h4-8,19-20H,1-3H3

>  <standard_inchi_key>  (36) 
KQFUXLQBMQGNRT-UHFFFAOYSA-N

>  <name>  (36) 
Pachypodol

>  <iupac_name>  (36) 
5-hydroxy-2-(4-hydroxy-3-methoxy-phenyl)-3,7-dimethoxy-chromen-4-one

>  <annotation_level>  (36) 
5

>  <total_atom_count>  (36) 
41

>  <heavy_atom_count>  (36) 
25

>  <molecular_weight>  (36) 
344.32

>  <exact_molecular_weight>  (36) 
344.0896

>  <molecular_formula>  (36) 
C18H16O7

>  <alogp>  (36) 
2.90

>  <topological_polar_surface_area>  (36) 
98.36

>  <rotatable_bond_count>  (36) 
4

>  <hydrogen_bond_acceptors>  (36) 
7

>  <hydrogen_bond_donors>  (36) 
2

>  <hydrogen_bond_acceptors_lipinski>  (36) 
7

>  <hydrogen_bond_donors_lipinski>  (36) 
2

>  <lipinski_rule_of_five_violations>  (36) 
0

>  <aromatic_rings_count>  (36) 
3

>  <qed_drug_likeliness>  (36) 
0.75

>  <formal_charge>  (36) 
0

>  <fractioncsp3>  (36) 
0.17

>  <number_of_minimal_rings>  (36) 
3

>  <van_der_walls_volume>  (36) 
289.90

>  <contains_sugar>  (36) 
False

>  <contains_ring_sugars>  (36) 
False

>  <contains_linear_sugars>  (36) 
False

>  <murcko_framework>  (36) 
O1c2ccccc2CC=C1c3ccccc3

>  <np_likeness>  (36) 
1.21

>  <chemical_class>  (36) 
Flavonoids

>  <chemical_sub_class>  (36) 
O-methylated flavonoids

>  <chemical_super_class>  (36) 
Phenylpropanoids and polyketides

>  <direct_parent_classification>  (36) 
3-O-methylated flavonoids

>  <np_classifier_pathway>  (36) 
Shikimates and Phenylpropanoids

>  <np_classifier_superclass>  (36) 
Flavonoids

>  <np_classifier_class>  (36) 
Flavonols

>  <np_classifier_is_glycoside>  (36) 
False

>  <organisms>  (36) 
Acacia acuminata|Adenosma capitatum|Agastache rugosa|Agastache rugosus|Alliaria petiolata|Allium victorialis|Angiopteris evecta|Artemisia annua|Artemisia annua L.|Artemisia apiacea|Arthrophytum leptocladum|Aspergillus fumigatus|Bacillus amyloliquefaciens|Begonia glabra|Betula nigra|Bipolaris sorokiniana|Blepharis sindica|Bosistoa floydii|Byrsonima microphylla|Cassipourea guianensis|Cavernulina grandiflora|Cellulomonas biazotea|Chromolaena morii|Chrysomela tremula|Chrysothamnus viscidiflorus|Cladonia squamosa|Cladosporium tenuissimum|Combretum quadrangulare|Corbicula fluminea|Cordia multispicata|Crotalaria madurensis|Croton ciliatoglanduliferus|Cystoclonium purpureum|Delphinium brownii|Dovyalis abyssinica|Encelia stenophylla|Epimedium pubescens|Erodiophyllum elderi|Eucalyptus cordata|Euodia elleryana|Euodia glabra|Euodia merrillii|Euodia viticina|Eupomatia laurina|Fagraea fragrans|Flourensia cernua|Fragaria indica|Frasera caroliniensis|Fritillaria ussuriensis|Frullania brittoniae|Glycyrrhiza echinata|Grindelia robusta|Grindelia squarrosa|Grindelia tarapacana|Heliotropium sinuatum|Heterotheca grandiflora|Heterotheca villosa|Iboza riparia|Isodon coetsa|Jasonia montana|Kingiella taenialis|Lamellodysidea herbacea|Larrea cuneifolia|Latua pubiflora|Libanothamnus occultus|Lobelia st|Lomatia silaifolia|Lycopodium contiguum|Macaranga triloba|Melicope elleryana|Melicope semecarpifolia|Melicope ternata|Microtoena prainiana|Miliusa balansae|Miliusa cuneata|Millettia zechiana|Mimulus lewisii|Mirabilis viscosa|Mucuna prurita|Mundulea striata|Nectandra rubra|Nephelium mutabile|Nothofagus cunninghamii|Panda oleosa|Parmelia mongaensis|Parthenocissus tricuspidata|Petunia surfinia|Phebalium gracile|Phyllanthus virgatus|Pinus densiflora var. densiflora|Plectranthus cylindraceus|Pogostemon cablin|Polygala arillata|Poria cocos|Pseudomonas viridiflava|Pseudoscleropodium purum|Ranunculus sieboldii|Remijia pedunculata|Rhododendron tomentosum|Robinsonia gracilis|Rudbeckia hirta|Salpiglossis sinuata|Saracha viscosa|Sarcodon aspratus|Senecio kaempferi|Senecio roseiflorus|Senecio viscosissimus|Senecio viscosus|Sinopodophyllum emodi|Solanum pubescens|Solanum toxicarum|Sorbus domestica|Spongia australis|Stelletta inconspicua|Streptomyces flaveus|Streptomyces rugosporus|Teucrium nuchense|Trichia favoginea|Uvaria cherrevensis|Varthemia iphionoides|Vicia cracca|Viscum album|Viscum coloratum|Viscum cruciatum|Wolfiporia cocos|Xanthocephalum gymnospermoides

>  <collections>  (36) 
ANPDB|AnalytiCon Discovery NPs|Australian natural products|BIOFACQUIM|CMAUP (cCollective molecular activities of useful plants)|ChEBI NPs|GNPS (Global Natural Products Social Molecular Networking)|KNApSaCK|Latin America dataset|NANPDB (Natural Products from Northern African Sources)|NPASS|NPCARE|NPEdia|Phyto4Health|Super Natural II|TCMDB-Taiwan (Traditional Chinese Medicine database)|TCMID (Traditional Chinese Medicine Integrated Database)|TIPdb (database of Taiwan indigenous plants)|UNPD (Universal Natural Products Database)|VietHerb|ZINC NP

>  <dois>  (36) 
10.1016/0031-9422(89)80084-6|10.1016/s0031-9422(00)83141-6|10.1016/s0031-9422(00)97111-5|10.1016/s0305-1978(97)00062-8|10.1021/acs.jafc.5b02842|10.1021/acs.jnatprod.5b01054|10.1021/np000124p|10.1021/np0704349|10.1021/np100784t|10.1021/np100797y|10.1071/ch9731111

>  <synonyms>  (36) 
33708-72-4|4'|5-Dihydroxy-3|3'|7-trimethoxyflavone|NSC-168805|Ro 09-0179|5|4'-dihydroxy-3|7|3'-trimethoxyflavone|Quercetin 3|7|3'-trimethyl ether|3|7|3'-Quercetol trimethyl ether-5|4'-dihydroxy-|8AG6B2DMP5|CHEMBL165180|CHEBI:70007|5-hydroxy-2-(4-hydroxy-3-methoxyphenyl)-3|7-dimethoxy-4H-chromen-4-one|4H-1-Benzopyran-4-one| 5-hydroxy-2-(4-hydroxy-3-methoxyphenyl)-3|7-dimethoxy-|Ro-090179|Quercetin-3|7|3'-trimethyl ether; Ro 09-0179|UNII-8AG6B2DMP5|SCHEMBL39280|DTXSID80187388|KQFUXLQBMQGNRT-UHFFFAOYSA-N|HY-N3121|BDBM50339157|LMPK12112754|AKOS032948402|AC-37071|MS-25274|CS-0023301|E88738|5|4'-dihydroxy-3|7|3'-quercetol trimethyl ether|Q3036425|NCGC00385819-01!5-hydroxy-2-(4-hydroxy-3-methoxyphenyl)-3|7-dimethoxychromen-4-one|Paquipodol|Pachypodol

>  <cas>  (36) 
33708-72-4

$$$$

     RDKit          2D

 39 41  0  0  0  0  0  0  0  0999 V2000
   -6.5886   -2.9211    0.0000 C   0  0  0  0  0  0  0  0  0  0  0  0
   -7.1150   -1.5165    0.0000 C   0  0  0  0  0  0  0  0  0  0  0  0
   -8.5946   -1.2701    0.0000 C   0  0  0  0  0  0  0  0  0  0  0  0
   -9.1210    0.1345    0.0000 C   0  0  0  0  0  0  0  0  0  0  0  0
  -10.6007    0.3809    0.0000 O   0  0  0  0  0  0  0  0  0  0  0  0
   -8.1678    1.2927    0.0000 C   0  0  0  0  0  0  0  0  0  0  0  0
   -8.6943    2.6973    0.0000 C   0  0  0  0  0  0  0  0  0  0  0  0
   -6.6882    1.0463    0.0000 C   0  0  0  0  0  0  0  0  0  0  0  0
   -5.7350    2.2045    0.0000 O   0  0  0  0  0  0  0  0  0  0  0  0
   -6.1618   -0.3583    0.0000 C   0  0  0  0  0  0  0  0  0  0  0  0
   -4.6822   -0.6047    0.0000 C   0  0  0  0  0  0  0  0  0  0  0  0
   -4.1558   -2.0093    0.0000 O   0  0  0  0  0  0  0  0  0  0  0  0
   -3.7290    0.5535    0.0000 O   0  0  0  0  0  0  0  0  0  0  0  0
   -2.2493    0.3071    0.0000 C   0  0  0  0  0  0  0  0  0  0  0  0
   -1.7229   -1.0975    0.0000 C   0  0  0  0  0  0  0  0  0  0  0  0
   -2.6761   -2.2557    0.0000 C   0  0  0  0  0  0  0  0  0  0  0  0
   -0.2433   -1.3439    0.0000 C   0  0  0  0  0  0  0  0  0  0  0  0
    0.2831   -2.7485    0.0000 C   0  0  0  0  0  0  0  0  0  0  0  0
    0.7099   -0.1858    0.0000 C   0  0  0  0  0  0  0  0  0  0  0  0
    2.1895   -0.4322    0.0000 C   0  0  0  0  0  0  0  0  0  0  0  0
    2.7159   -1.8368    0.0000 O   0  0  0  0  0  0  0  0  0  0  0  0
    3.1427    0.7260    0.0000 O   0  0  0  0  0  0  0  0  0  0  0  0
    4.6223    0.4796    0.0000 C   0  0  0  0  0  0  0  0  0  0  0  0
    5.1488   -0.9250    0.0000 C   0  0  0  0  0  0  0  0  0  0  0  0
    4.1956   -2.0832    0.0000 C   0  0  0  0  0  0  0  0  0  0  0  0
    6.6284   -1.1714    0.0000 C   0  0  0  0  0  0  0  0  0  0  0  0
    7.1548   -2.5760    0.0000 C   0  0  0  0  0  0  0  0  0  0  0  0
    7.5816   -0.0132    0.0000 C   0  0  0  0  0  0  0  0  0  0  0  0
    9.0612   -0.2596    0.0000 C   0  0  0  0  0  0  0  0  0  0  0  0
    9.5876   -1.6642    0.0000 O   0  0  0  0  0  0  0  0  0  0  0  0
   10.0144    0.8986    0.0000 O   0  0  0  0  0  0  0  0  0  0  0  0
    7.0552    1.3914    0.0000 C   0  0  0  0  0  0  0  0  0  0  0  0
    8.0084    2.5496    0.0000 O   0  0  0  0  0  0  0  0  0  0  0  0
    5.5756    1.6378    0.0000 C   0  0  0  0  0  0  0  0  0  0  0  0
    5.0491    3.0424    0.0000 C   0  0  0  0  0  0  0  0  0  0  0  0
    0.1835    1.2188    0.0000 C   0  0  0  0  0  0  0  0  0  0  0  0
    1.1367    2.3770    0.0000 O   0  0  0  0  0  0  0  0  0  0  0  0
   -1.2961    1.4652    0.0000 C   0  0  0  0  0  0  0  0  0  0  0  0
   -1.8226    2.8698    0.0000 C   0  0  0  0  0  0  0  0  0  0  0  0
  1  2  1  0
  2  3  2  0
  3  4  1  0
  4  5  1  0
  4  6  2  0
  6  7  1  0
  6  8  1  0
  8  9  1  0
  8 10  2  0
 10 11  1  0
 11 12  2  0
 11 13  1  0
 13 14  1  0
 14 15  2  0
 15 16  1  0
 15 17  1  0
 17 18  1  0
 17 19  2  0
 19 20  1  0
 20 21  2  0
 20 22  1  0
 22 23  1  0
 23 24  2  0
 24 25  1  0
 24 26  1  0
 26 27  1  0
 26 28  2  0
 28 29  1  0
 29 30  2  0
 29 31  1  0
 28 32  1  0
 32 33  1  0
 32 34  2  0
 34 35  1  0
 19 36  1  0
 36 37  1  0
 36 38  2  0
 38 39  1  0
 10  2  1  0
 38 14  1  0
 34 23  1  0
M  END
>  <identifier>  (37) 
CNP0137968.0

>  <canonical_smiles>  (37) 
CC1=CC(O)=C(C)C(O)=C1C(=O)OC1=C(C)C(C)=C(C(=O)OC2=C(C)C(C)=C(C(=O)O)C(O)=C2C)C(O)=C1C

>  <standard_inchi>  (37) 
InChI=1S/C29H30O10/c1-10-9-18(30)15(6)22(31)19(10)28(36)38-26-14(5)12(3)21(24(33)17(26)8)29(37)39-25-13(4)11(2)20(27(34)35)23(32)16(25)7/h9,30-33H,1-8H3,(H,34,35)

>  <standard_inchi_key>  (37) 
MGGMNKJGDSNTKZ-UHFFFAOYSA-N

>  <name>  (37) 
Thielavin A

>  <iupac_name>  (37) 
4-[4-(2,4-dihydroxy-3,6-dimethyl-benzoyl)oxy-2-hydroxy-3,5,6-trimethyl-benzoyl]oxy-2-hydroxy-3,5,6-trimethyl-benzoic acid

>  <annotation_level>  (37) 
5

>  <total_atom_count>  (37) 
69

>  <heavy_atom_count>  (37) 
39

>  <molecular_weight>  (37) 
538.55

>  <exact_molecular_weight>  (37) 
538.1839

>  <molecular_formula>  (37) 
C29H30O10

>  <alogp>  (37) 
5.11

>  <topological_polar_surface_area>  (37) 
170.82

>  <rotatable_bond_count>  (37) 
5

>  <hydrogen_bond_acceptors>  (37) 
9

>  <hydrogen_bond_donors>  (37) 
5

>  <hydrogen_bond_acceptors_lipinski>  (37) 
9

>  <hydrogen_bond_donors_lipinski>  (37) 
5

>  <lipinski_rule_of_five_violations>  (37) 
2

>  <aromatic_rings_count>  (37) 
3

>  <qed_drug_likeliness>  (37) 
0.22

>  <formal_charge>  (37) 
0

>  <fractioncsp3>  (37) 
0.28

>  <number_of_minimal_rings>  (37) 
3

>  <van_der_walls_volume>  (37) 
471.64

>  <contains_sugar>  (37) 
False

>  <contains_ring_sugars>  (37) 
False

>  <contains_linear_sugars>  (37) 
False

>  <murcko_framework>  (37) 
O(c1ccccc1)Cc2ccc(OCc3ccccc3)cc2

>  <np_likeness>  (37) 
0.76

>  <chemical_class>  (37) 
Depsides and depsidones

>  <chemical_sub_class>  (37) 
Depsides and depsidones

>  <chemical_super_class>  (37) 
Phenylpropanoids and polyketides

>  <direct_parent_classification>  (37) 
Depsides and depsidones

>  <np_classifier_pathway>  (37) 
Polyketides

>  <np_classifier_superclass>  (37) 
Aromatic polyketides

>  <np_classifier_class>  (37) 
Depsides

>  <np_classifier_is_glycoside>  (37) 
False

>  <organisms>  (37) 
MEXU 27095|Thielavia sp.|Thielavia sp. 27095|Thielavia terricola

>  <collections>  (37) 
BIOFACQUIM|CMNPD|EMNPD|KNApSaCK|Latin America dataset|NPAtlas|NPEdia|Super Natural II|UNPD (Universal Natural Products Database)

>  <dois>  (37) 
10.1039/c8np00092a|10.1055/s-0033-1348676|10.7164/antibiotics.34.1562

>  <synonyms>  (37) 
71950-66-8|4-4-(2|4-dihydroxy-3|6-dimethylbenzoyl)oxy-2-hydroxy-3|5|6-trimethylbenzoyloxy-2-hydroxy-3|5|6-trimethylbenzoic acid|Benzoic acid|4-(2|4-dihydroxy-3|6-dimethylbenzoyl)oxy-2-hydroxy-3|5|6-trimethyl-|4-carboxy-3-hydroxy-2|5|6-trimethylphenyl ester|Thielavin-A|DTXSID10222236|CHEBI:212063|HY-N10225|AKOS040756034|CS-0106914|thielavin A

>  <cas>  (37) 
71950-66-8

$$$$

     RDKit          2D

 47 55  0  0  0  0  0  0  0  0999 V2000
    4.8604    3.3401    0.0000 C   0  0  0  0  0  0  0  0  0  0  0  0
    5.1212    1.8630    0.0000 N   0  0  0  0  0  0  0  0  0  0  0  0
    3.9723    0.8986    0.0000 C   0  0  0  0  0  0  0  0  0  0  0  0
    2.8530    1.6533    0.0000 O   0  0  0  0  0  0  0  0  0  0  0  0
    4.2331   -0.5786    0.0000 C   0  0  0  0  0  0  0  0  0  0  0  0
    3.0842   -1.5430    0.0000 C   0  0  0  0  0  0  0  0  0  0  0  0
    1.6746   -1.0303    0.0000 C   0  0  0  0  0  0  0  0  0  0  0  0
    0.4312   -1.8693    0.0000 C   0  0  0  0  0  0  0  0  0  0  0  0
   -0.7510   -0.9460    0.0000 N   0  0  0  0  0  0  0  0  0  0  0  0
   -2.1928   -1.3598    0.0000 C   0  0  0  0  0  0  0  0  0  0  0  0
   -2.1408    0.1393    0.0000 C   0  0  0  0  0  0  0  0  0  0  0  0
   -3.5504    0.6521    0.0000 C   0  0  0  0  0  0  0  0  0  0  0  0
   -4.1126    2.0427    0.0000 S   0  0  0  0  0  0  0  0  0  0  0  0
   -5.5980    2.2512    0.0000 S   0  0  0  0  0  0  0  0  0  0  0  0
   -6.5213    1.0690    0.0000 C   0  0  0  0  0  0  0  0  0  0  0  0
   -8.0067    1.2774    0.0000 C   0  0  0  0  0  0  0  0  0  0  0  0
   -8.5689    2.6681    0.0000 O   0  0  0  0  0  0  0  0  0  0  0  0
   -5.9591   -0.3217    0.0000 C   0  0  0  0  0  0  0  0  0  0  0  0
   -6.8824   -1.5039    0.0000 O   0  0  0  0  0  0  0  0  0  0  0  0
   -4.4737   -0.5301    0.0000 N   0  0  0  0  0  0  0  0  0  0  0  0
   -3.6346   -1.7735    0.0000 C   0  0  0  0  0  0  0  0  0  0  0  0
   -3.6867   -3.2726    0.0000 N   0  0  0  0  0  0  0  0  0  0  0  0
   -2.2770   -3.7854    0.0000 C   0  0  0  0  0  0  0  0  0  0  0  0
   -1.7149   -5.1760    0.0000 C   0  0  0  0  0  0  0  0  0  0  0  0
   -0.2294   -5.3845    0.0000 C   0  0  0  0  0  0  0  0  0  0  0  0
    0.6938   -4.2023    0.0000 C   0  0  0  0  0  0  0  0  0  0  0  0
    0.1317   -2.8116    0.0000 C   0  0  0  0  0  0  0  0  0  0  0  0
   -1.3538   -2.6032    0.0000 C   0  0  0  0  0  0  0  0  0  0  0  0
   -5.7004    1.0047    0.0000 N   0  0  0  0  0  0  0  0  0  0  0  0
   -6.1602    3.6418    0.0000 C   0  0  0  0  0  0  0  0  0  0  0  0
   -4.3573    0.8162    0.0000 C   0  0  0  0  0  0  0  0  0  0  0  0
   -3.1893    3.2249    0.0000 O   0  0  0  0  0  0  0  0  0  0  0  0
   -0.2383    0.4636    0.0000 C   0  0  0  0  0  0  0  0  0  0  0  0
   -0.9427    1.7879    0.0000 C   0  0  0  0  0  0  0  0  0  0  0  0
   -0.1481    3.0601    0.0000 C   0  0  0  0  0  0  0  0  0  0  0  0
    1.3510    3.0081    0.0000 C   0  0  0  0  0  0  0  0  0  0  0  0
    2.0555    1.6838    0.0000 C   0  0  0  0  0  0  0  0  0  0  0  0
    1.2608    0.4115    0.0000 C   0  0  0  0  0  0  0  0  0  0  0  0
    5.6427   -1.0913    0.0000 S   0  0  0  0  0  0  0  0  0  0  0  0
    6.7916   -0.1269    0.0000 S   0  0  0  0  0  0  0  0  0  0  0  0
    6.5308    1.3502    0.0000 C   0  0  0  0  0  0  0  0  0  0  0  0
    7.6797    2.3146    0.0000 C   0  0  0  0  0  0  0  0  0  0  0  0
    9.0894    1.8019    0.0000 O   0  0  0  0  0  0  0  0  0  0  0  0
    5.9338    0.7832    0.0000 C   0  0  0  0  0  0  0  0  0  0  0  0
    8.2012   -0.6397    0.0000 O   0  0  0  0  0  0  0  0  0  0  0  0
    4.8950   -0.0888    0.0000 N   0  0  0  0  0  0  0  0  0  0  0  0
    5.9035   -2.5685    0.0000 C   0  0  0  0  0  0  0  0  0  0  0  0
  1  2  1  0
  2  3  1  0
  3  4  2  0
  3  5  1  0
  5  6  1  6
  6  7  1  0
  7  8  2  0
  8  9  1  0
 10  9  1  1
 10 11  1  0
 12 11  1  1
 12 13  1  0
 13 14  1  0
 14 15  1  0
 15 16  1  1
 16 17  1  0
 15 18  1  0
 18 19  2  0
 18 20  1  0
 20 21  1  0
 21 22  1  6
 22 23  1  0
 23 24  2  0
 24 25  1  0
 25 26  2  0
 26 27  1  0
 27 28  2  0
 15 29  1  0
 29 30  1  0
 29 31  1  0
 31 32  2  0
  9 33  1  0
 33 34  2  0
 34 35  1  0
 35 36  2  0
 36 37  1  0
 37 38  2  0
  5 39  1  0
 39 40  1  0
 40 41  1  0
 41 42  1  6
 42 43  1  0
 41 44  1  0
 44 45  2  0
 44 46  1  0
 46 47  1  0
 41  2  1  0
 46  5  1  0
 38  7  1  0
 21 10  1  0
 28 23  1  0
 38 33  1  0
 28 10  1  0
 20 12  1  0
 31 12  1  0
M  END
>  <identifier>  (38) 
CNP0199499.1

>  <canonical_smiles>  (38) 
CN1C(=O)[C@]2(CC3=CN([C@]45C[C@@]67SS[C@@](CO)(C(=O)N6[C@H]4NC4=CC=CC=C45)N(C)C7=O)C4=CC=CC=C34)SS[C@@]1(CO)C(=O)N2C

>  <standard_inchi>  (38) 
InChI=1S/C31H30N6O6S4/c1-33-25(42)30(15-38)34(2)23(40)28(33,44-46-30)12-17-13-36(21-11-7-4-8-18(17)21)27-14-29-24(41)35(3)31(16-39,47-45-29)26(43)37(29)22(27)32-20-10-6-5-9-19(20)27/h4-11,13,22,32,38-39H,12,14-16H2,1-3H3/t22-,27+,28+,29+,30+,31+/m1/s1

>  <standard_inchi_key>  (38) 
ZRZWBWPDBOVIGQ-YWZWRZHGSA-N

>  <name>  (38) 
Chetomin

>  <iupac_name>  (38) 
(1~{S},3~{S},11~{R},14~{S})-14-(hydroxymethyl)-3-[3-[[(1~{S},4~{S})-4-(hydroxymethyl)-5,7-dimethyl-6,8-dioxo-2,3-dithia-5,7-diazabicyclo[2.2.2]octan-1-yl]methyl]indol-1-yl]-18-methyl-15,16-dithia-10,12,18-triazapentacyclo[12.2.2.0^{1,12}.0^{3,11}.0^{4,9}]octadeca-4,6,8-triene-13,17-dione

>  <annotation_level>  (38) 
5

>  <total_atom_count>  (38) 
77

>  <heavy_atom_count>  (38) 
47

>  <molecular_weight>  (38) 
710.89

>  <exact_molecular_weight>  (38) 
710.11097

>  <molecular_formula>  (38) 
C31H30N6O6S4

>  <alogp>  (38) 
1.87

>  <topological_polar_surface_area>  (38) 
138.66

>  <rotatable_bond_count>  (38) 
5

>  <hydrogen_bond_acceptors>  (38) 
12

>  <hydrogen_bond_donors>  (38) 
3

>  <hydrogen_bond_acceptors_lipinski>  (38) 
12

>  <hydrogen_bond_donors_lipinski>  (38) 
3

>  <lipinski_rule_of_five_violations>  (38) 
2

>  <aromatic_rings_count>  (38) 
3

>  <qed_drug_likeliness>  (38) 
0.33

>  <formal_charge>  (38) 
0

>  <fractioncsp3>  (38) 
0.42

>  <number_of_minimal_rings>  (38) 
11

>  <van_der_walls_volume>  (38) 
564.54

>  <contains_sugar>  (38) 
False

>  <contains_ring_sugars>  (38) 
False

>  <contains_linear_sugars>  (38) 
False

>  <murcko_framework>  (38) 
S1SC2(NCC1NC2)Cc3cn(c4ccccc43)C56c7ccccc7NC6N8CC9SSC8(CN9)C5

>  <np_likeness>  (38) 
1.53

>  <chemical_class>  (38) 
Indoles and derivatives

>  <chemical_sub_class>  (38) 
Pyrroloindoles

>  <chemical_super_class>  (38) 
Organoheterocyclic compounds

>  <direct_parent_classification>  (38) 
Pyrroloindoles

>  <np_classifier_pathway>  (38) 
Alkaloids

>  <np_classifier_superclass>  (38) 
Peptide alkaloids

>  <np_classifier_class>  (38) 
Indole diketopiperazine alkaloids (L-Trp, L-Ala)

>  <np_classifier_is_glycoside>  (38) 
False

>  <organisms>  (38) 
Ageratina tristis|Chaetomium globosum|Chaetomium seminudum|Chaetonium cochliodes

>  <collections>  (38) 
BIOFACQUIM|KNApSaCK|Latin America dataset|NPASS|Super Natural II

>  <dois>  (38) 
10.1021/np0302201|10.1021/np5007235|10.1055/s-0034-1382605

>  <synonyms>  (38) 
Chaetomin|1403-36-7|BKU7CX6USX|CHEMBL499593|2|3S|5aR|6|10bS|11-hexahydro-3-(hydroxymethyl)-10b-(1S|4S)-3-4-(hydroxymethyl)-5|7-dimethyl-6|8-dioxo-2|3-dithia-5|7-diazabicyclo2.2.2oct-1-ylmethyl-1H-indol-1-yl-2-methyl-3|11aS-epidithio-11aH-pyrazino1'|2':1|5pyrrolo2|3-bindole-1|4-dione|NSC-289491|BRN 0077366|UNII-BKU7CX6USX|4-27-00-09496 (Beilstein Handbook Reference)|SCHEMBL1098248|ZRZWBWPDBOVIGQ-YWZWRZHGSA-N|BDBM50396027|AKOS040759040|MS-31200|HY-107553|CS-0028866|M04053|A934182|(1S|3S|11R|14S)-14-(hydroxymethyl)-3-3-(1S|4S)-4-(hydroxymethyl)-5|7-dimethyl-6|8-dioxo-2|3-dithia-5|7-diazabicyclo2.2.2octan-1-ylmethylindol-1-yl-18-methyl-15|16-dithia-10|12|18-triazapentacyclo12.2.2.01|12.03|11.04|9octadeca-4|6|8-triene-13|17-dione|3|11a-Epidithio-11aH-pyrazino1'|2':1|5pyrrolo2|3-bindole-1|4-dione| 2|3|5a|6|10b|11-hexahydro-3-(hydroxymethyl)-10b-(1S|4S)-3-4-(hydroxymethyl)-5|7-dimethyl-6|8-dioxo-2|3-dithia-5|7-diazabicyclo2.2.2oct-1-ylmethyl-1H-indol-1-yl-2-methyl-| (3S|5aR|10bS|11aS)-

>  <cas>  (38) 
1403-36-7

$$$$

     RDKit          2D

 39 41  0  0  0  0  0  0  0  0999 V2000
    0.6848   -3.7700    0.0000 C   0  0  0  0  0  0  0  0  0  0  0  0
    1.2258   -2.3710    0.0000 O   0  0  0  0  0  0  0  0  0  0  0  0
    0.2848   -1.2029    0.0000 C   0  0  0  0  0  0  0  0  0  0  0  0
   -1.1973   -1.4339    0.0000 C   0  0  0  0  0  0  0  0  0  0  0  0
   -1.7384   -2.8329    0.0000 C   0  0  0  0  0  0  0  0  0  0  0  0
   -2.1384   -0.2658    0.0000 C   0  0  0  0  0  0  0  0  0  0  0  0
   -3.6205   -0.4968    0.0000 O   0  0  0  0  0  0  0  0  0  0  0  0
   -4.5616    0.6713    0.0000 C   0  0  0  0  0  0  0  0  0  0  0  0
   -4.0206    2.0703    0.0000 O   0  0  0  0  0  0  0  0  0  0  0  0
   -6.0437    0.4403    0.0000 C   0  0  0  0  0  0  0  0  0  0  0  0
   -6.9848    1.6084    0.0000 C   0  0  0  0  0  0  0  0  0  0  0  0
   -6.4438    3.0074    0.0000 C   0  0  0  0  0  0  0  0  0  0  0  0
   -8.4669    1.3774    0.0000 C   0  0  0  0  0  0  0  0  0  0  0  0
   -9.0079   -0.0216    0.0000 C   0  0  0  0  0  0  0  0  0  0  0  0
  -10.4901   -0.2526    0.0000 O   0  0  0  0  0  0  0  0  0  0  0  0
   -8.0669   -1.1897    0.0000 C   0  0  0  0  0  0  0  0  0  0  0  0
   -8.6079   -2.5887    0.0000 C   0  0  0  0  0  0  0  0  0  0  0  0
   -6.5848   -0.9587    0.0000 C   0  0  0  0  0  0  0  0  0  0  0  0
   -5.6437   -2.1268    0.0000 O   0  0  0  0  0  0  0  0  0  0  0  0
   -1.5974    1.1332    0.0000 C   0  0  0  0  0  0  0  0  0  0  0  0
   -2.5385    2.3013    0.0000 C   0  0  0  0  0  0  0  0  0  0  0  0
   -0.1153    1.3642    0.0000 C   0  0  0  0  0  0  0  0  0  0  0  0
    0.4258    2.7632    0.0000 C   0  0  0  0  0  0  0  0  0  0  0  0
    0.8258    0.1961    0.0000 C   0  0  0  0  0  0  0  0  0  0  0  0
    2.3079    0.4271    0.0000 C   0  0  0  0  0  0  0  0  0  0  0  0
    2.8490    1.8261    0.0000 O   0  0  0  0  0  0  0  0  0  0  0  0
    3.2490   -0.7410    0.0000 O   0  0  0  0  0  0  0  0  0  0  0  0
    4.7311   -0.5100    0.0000 C   0  0  0  0  0  0  0  0  0  0  0  0
    5.6722   -1.6781    0.0000 C   0  0  0  0  0  0  0  0  0  0  0  0
    7.1543   -1.4471    0.0000 C   0  0  0  0  0  0  0  0  0  0  0  0
    8.0954   -2.6152    0.0000 C   0  0  0  0  0  0  0  0  0  0  0  0
    7.6953   -0.0481    0.0000 C   0  0  0  0  0  0  0  0  0  0  0  0
    9.1774    0.1829    0.0000 C   0  0  0  0  0  0  0  0  0  0  0  0
   10.1185   -0.9852    0.0000 O   0  0  0  0  0  0  0  0  0  0  0  0
    9.7185    1.5819    0.0000 O   0  0  0  0  0  0  0  0  0  0  0  0
    6.7543    1.1200    0.0000 C   0  0  0  0  0  0  0  0  0  0  0  0
    7.2953    2.5190    0.0000 O   0  0  0  0  0  0  0  0  0  0  0  0
    5.2721    0.8890    0.0000 C   0  0  0  0  0  0  0  0  0  0  0  0
    4.3311    2.0571    0.0000 C   0  0  0  0  0  0  0  0  0  0  0  0
  1  2  1  0
  2  3  1  0
  3  4  2  0
  4  5  1  0
  4  6  1  0
  6  7  1  0
  7  8  1  0
  8  9  2  0
  8 10  1  0
 10 11  2  0
 11 12  1  0
 11 13  1  0
 13 14  2  0
 14 15  1  0
 14 16  1  0
 16 17  1  0
 16 18  2  0
 18 19  1  0
  6 20  2  0
 20 21  1  0
 20 22  1  0
 22 23  1  0
 22 24  2  0
 24 25  1  0
 25 26  2  0
 25 27  1  0
 27 28  1  0
 28 29  2  0
 29 30  1  0
 30 31  1  0
 30 32  2  0
 32 33  1  0
 33 34  2  0
 33 35  1  0
 32 36  1  0
 36 37  1  0
 36 38  2  0
 38 39  1  0
 24  3  1  0
 38 28  1  0
 18 10  1  0
M  END
>  <identifier>  (39) 
CNP0186978.0

>  <canonical_smiles>  (39) 
COC1=C(C)C(OC(=O)C2=C(C)C=C(O)C(C)=C2O)=C(C)C(C)=C1C(=O)OC1=CC(C)=C(C(=O)O)C(O)=C1C

>  <standard_inchi>  (39) 
InChI=1S/C29H30O10/c1-11-9-18(30)15(5)23(31)21(11)28(35)39-25-14(4)13(3)22(26(37-8)17(25)7)29(36)38-19-10-12(2)20(27(33)34)24(32)16(19)6/h9-10,30-32H,1-8H3,(H,33,34)

>  <standard_inchi_key>  (39) 
RLLCMRPOSFZYJJ-UHFFFAOYSA-N

>  <name>  (39) 
Thielavin J

>  <iupac_name>  (39) 
4-[4-(2,4-dihydroxy-3,6-dimethyl-benzoyl)oxy-2-methoxy-3,5,6-trimethyl-benzoyl]oxy-2-hydroxy-3,6-dimethyl-benzoic acid

>  <annotation_level>  (39) 
5

>  <total_atom_count>  (39) 
69

>  <heavy_atom_count>  (39) 
39

>  <molecular_weight>  (39) 
538.55

>  <exact_molecular_weight>  (39) 
538.1839

>  <molecular_formula>  (39) 
C29H30O10

>  <alogp>  (39) 
5.11

>  <topological_polar_surface_area>  (39) 
159.82

>  <rotatable_bond_count>  (39) 
6

>  <hydrogen_bond_acceptors>  (39) 
9

>  <hydrogen_bond_donors>  (39) 
4

>  <hydrogen_bond_acceptors_lipinski>  (39) 
9

>  <hydrogen_bond_donors_lipinski>  (39) 
4

>  <lipinski_rule_of_five_violations>  (39) 
2

>  <aromatic_rings_count>  (39) 
3

>  <qed_drug_likeliness>  (39) 
0.25

>  <formal_charge>  (39) 
0

>  <fractioncsp3>  (39) 
0.28

>  <number_of_minimal_rings>  (39) 
3

>  <van_der_walls_volume>  (39) 
473.62

>  <contains_sugar>  (39) 
False

>  <contains_ring_sugars>  (39) 
False

>  <contains_linear_sugars>  (39) 
False

>  <murcko_framework>  (39) 
O(c1ccccc1)Cc2ccc(OCc3ccccc3)cc2

>  <np_likeness>  (39) 
0.86

>  <chemical_class>  (39) 
Depsides and depsidones

>  <chemical_sub_class>  (39) 
Depsides and depsidones

>  <chemical_super_class>  (39) 
Phenylpropanoids and polyketides

>  <direct_parent_classification>  (39) 
Depsides and depsidones

>  <np_classifier_pathway>  (39) 
Polyketides

>  <np_classifier_superclass>  (39) 
Aromatic polyketides

>  <np_classifier_class>  (39) 
Depsides

>  <np_classifier_is_glycoside>  (39) 
False

>  <organisms>  (39) 
Chaetomium carinthiacum ATCC 46463|MEXU 27095|Thielavia sp.|Thielavia sp. 27095

>  <collections>  (39) 
BIOFACQUIM|CMNPD|EMNPD|KNApSaCK|Latin America dataset|NPAtlas|NPEdia|Super Natural II|UNPD (Universal Natural Products Database)

>  <dois>  (39) 
10.1016/j.phytochem.2013.05.021|10.1039/c8np00092a|10.1055/s-0033-1348676

>  <synonyms>  (39) 
4-4-(2|4-dihydroxy-3|6-dimethylbenzoyl)oxy-2-methoxy-3|5|6-trimethylbenzoyloxy-2-hydroxy-3|6-dimethylbenzoic acid|CHEBI:200982|Thielavin-J|thielavin J

>  <cas>  (39) 
nan

$$$$

     RDKit          2D

 40 42  0  0  0  0  0  0  0  0999 V2000
    0.6016   -3.6860    0.0000 C   0  0  0  0  0  0  0  0  0  0  0  0
    1.1255   -2.2805    0.0000 O   0  0  0  0  0  0  0  0  0  0  0  0
    0.1702   -1.1240    0.0000 C   0  0  0  0  0  0  0  0  0  0  0  0
   -1.3090   -1.3730    0.0000 C   0  0  0  0  0  0  0  0  0  0  0  0
   -1.8329   -2.7786    0.0000 C   0  0  0  0  0  0  0  0  0  0  0  0
   -2.2642   -0.2166    0.0000 C   0  0  0  0  0  0  0  0  0  0  0  0
   -3.7434   -0.4656    0.0000 O   0  0  0  0  0  0  0  0  0  0  0  0
   -4.6987    0.6909    0.0000 C   0  0  0  0  0  0  0  0  0  0  0  0
   -4.1748    2.0964    0.0000 O   0  0  0  0  0  0  0  0  0  0  0  0
   -6.1779    0.4418    0.0000 C   0  0  0  0  0  0  0  0  0  0  0  0
   -7.1331    1.5983    0.0000 C   0  0  0  0  0  0  0  0  0  0  0  0
   -6.6092    3.0039    0.0000 C   0  0  0  0  0  0  0  0  0  0  0  0
   -8.6123    1.3493    0.0000 C   0  0  0  0  0  0  0  0  0  0  0  0
   -9.1362   -0.0562    0.0000 C   0  0  0  0  0  0  0  0  0  0  0  0
  -10.6154   -0.3053    0.0000 O   0  0  0  0  0  0  0  0  0  0  0  0
   -8.1809   -1.2127    0.0000 C   0  0  0  0  0  0  0  0  0  0  0  0
   -8.7049   -2.6183    0.0000 C   0  0  0  0  0  0  0  0  0  0  0  0
   -6.7018   -0.9637    0.0000 C   0  0  0  0  0  0  0  0  0  0  0  0
   -5.7465   -2.1202    0.0000 O   0  0  0  0  0  0  0  0  0  0  0  0
   -1.7403    1.1890    0.0000 C   0  0  0  0  0  0  0  0  0  0  0  0
   -2.6956    2.3455    0.0000 C   0  0  0  0  0  0  0  0  0  0  0  0
   -0.2611    1.4380    0.0000 C   0  0  0  0  0  0  0  0  0  0  0  0
    0.2628    2.8436    0.0000 C   0  0  0  0  0  0  0  0  0  0  0  0
    0.6941    0.2815    0.0000 C   0  0  0  0  0  0  0  0  0  0  0  0
    2.1733    0.5306    0.0000 C   0  0  0  0  0  0  0  0  0  0  0  0
    2.6972    1.9361    0.0000 O   0  0  0  0  0  0  0  0  0  0  0  0
    3.1286   -0.6259    0.0000 O   0  0  0  0  0  0  0  0  0  0  0  0
    4.6078   -0.3769    0.0000 C   0  0  0  0  0  0  0  0  0  0  0  0
    5.5630   -1.5333    0.0000 C   0  0  0  0  0  0  0  0  0  0  0  0
    5.0391   -2.9389    0.0000 C   0  0  0  0  0  0  0  0  0  0  0  0
    7.0422   -1.2843    0.0000 C   0  0  0  0  0  0  0  0  0  0  0  0
    7.9975   -2.4408    0.0000 C   0  0  0  0  0  0  0  0  0  0  0  0
    7.5661    0.1212    0.0000 C   0  0  0  0  0  0  0  0  0  0  0  0
    9.0453    0.3703    0.0000 C   0  0  0  0  0  0  0  0  0  0  0  0
   10.0006   -0.7862    0.0000 O   0  0  0  0  0  0  0  0  0  0  0  0
    9.5692    1.7758    0.0000 O   0  0  0  0  0  0  0  0  0  0  0  0
    6.6109    1.2777    0.0000 C   0  0  0  0  0  0  0  0  0  0  0  0
    7.1348    2.6832    0.0000 O   0  0  0  0  0  0  0  0  0  0  0  0
    5.1317    1.0287    0.0000 C   0  0  0  0  0  0  0  0  0  0  0  0
    4.1764    2.1852    0.0000 C   0  0  0  0  0  0  0  0  0  0  0  0
  1  2  1  0
  2  3  1  0
  3  4  2  0
  4  5  1  0
  4  6  1  0
  6  7  1  0
  7  8  1  0
  8  9  2  0
  8 10  1  0
 10 11  2  0
 11 12  1  0
 11 13  1  0
 13 14  2  0
 14 15  1  0
 14 16  1  0
 16 17  1  0
 16 18  2  0
 18 19  1  0
  6 20  2  0
 20 21  1  0
 20 22  1  0
 22 23  1  0
 22 24  2  0
 24 25  1  0
 25 26  2  0
 25 27  1  0
 27 28  1  0
 28 29  2  0
 29 30  1  0
 29 31  1  0
 31 32  1  0
 31 33  2  0
 33 34  1  0
 34 35  2  0
 34 36  1  0
 33 37  1  0
 37 38  1  0
 37 39  2  0
 39 40  1  0
 24  3  1  0
 39 28  1  0
 18 10  1  0
M  END
>  <identifier>  (40) 
CNP0152067.0

>  <canonical_smiles>  (40) 
COC1=C(C)C(OC(=O)C2=C(C)C=C(O)C(C)=C2O)=C(C)C(C)=C1C(=O)OC1=C(C)C(C)=C(C(=O)O)C(O)=C1C

>  <standard_inchi>  (40) 
InChI=1S/C30H32O10/c1-11-10-19(31)16(6)23(32)20(11)29(36)40-26-15(5)13(3)22(27(38-9)18(26)8)30(37)39-25-14(4)12(2)21(28(34)35)24(33)17(25)7/h10,31-33H,1-9H3,(H,34,35)

>  <standard_inchi_key>  (40) 
IGYZEKLJQWCRPT-UHFFFAOYSA-N

>  <name>  (40) 
Thielavin K

>  <iupac_name>  (40) 
4-[4-(2,4-dihydroxy-3,6-dimethyl-benzoyl)oxy-2-methoxy-3,5,6-trimethyl-benzoyl]oxy-2-hydroxy-3,5,6-trimethyl-benzoic acid

>  <annotation_level>  (40) 
5

>  <total_atom_count>  (40) 
72

>  <heavy_atom_count>  (40) 
40

>  <molecular_weight>  (40) 
552.58

>  <exact_molecular_weight>  (40) 
552.19955

>  <molecular_formula>  (40) 
C30H32O10

>  <alogp>  (40) 
5.42

>  <topological_polar_surface_area>  (40) 
159.82

>  <rotatable_bond_count>  (40) 
6

>  <hydrogen_bond_acceptors>  (40) 
9

>  <hydrogen_bond_donors>  (40) 
4

>  <hydrogen_bond_acceptors_lipinski>  (40) 
9

>  <hydrogen_bond_donors_lipinski>  (40) 
4

>  <lipinski_rule_of_five_violations>  (40) 
2

>  <aromatic_rings_count>  (40) 
3

>  <qed_drug_likeliness>  (40) 
0.23

>  <formal_charge>  (40) 
0

>  <fractioncsp3>  (40) 
0.30

>  <number_of_minimal_rings>  (40) 
3

>  <van_der_walls_volume>  (40) 
490.94

>  <contains_sugar>  (40) 
False

>  <contains_ring_sugars>  (40) 
False

>  <contains_linear_sugars>  (40) 
False

>  <murcko_framework>  (40) 
O(c1ccccc1)Cc2ccc(OCc3ccccc3)cc2

>  <np_likeness>  (40) 
0.85

>  <chemical_class>  (40) 
Depsides and depsidones

>  <chemical_sub_class>  (40) 
Depsides and depsidones

>  <chemical_super_class>  (40) 
Phenylpropanoids and polyketides

>  <direct_parent_classification>  (40) 
Depsides and depsidones

>  <np_classifier_pathway>  (40) 
Polyketides

>  <np_classifier_superclass>  (40) 
Aromatic polyketides

>  <np_classifier_class>  (40) 
Depsides

>  <np_classifier_is_glycoside>  (40) 
False

>  <organisms>  (40) 
Chaetomium carinthiacum ATCC 46463|MEXU 27095|Thielavia sp.

>  <collections>  (40) 
BIOFACQUIM|CMNPD|EMNPD|Latin America dataset|NPAtlas|Super Natural II|UNPD (Universal Natural Products Database)

>  <dois>  (40) 
10.1039/c8np00092a|10.1055/s-0033-1348676|10.7164/antibiotics.55.941

>  <synonyms>  (40) 
4-4-(2|4-dihydroxy-3|6-dimethylbenzoyl)oxy-2-methoxy-3|5|6-trimethylbenzoyloxy-2-hydroxy-3|5|6-trimethylbenzoic acid|CHEBI:210199|Thielavin-K|thielavin K

>  <cas>  (40) 
nan

$$$$

     RDKit          2D

 47 52  0  0  0  0  0  0  0  0999 V2000
    3.8329    5.1801    0.0000 C   0  0  0  0  0  0  0  0  0  0  0  0
    2.5233    4.4486    0.0000 O   0  0  0  0  0  0  0  0  0  0  0  0
    2.5020    2.9488    0.0000 C   0  0  0  0  0  0  0  0  0  0  0  0
    3.7903    2.1804    0.0000 C   0  0  0  0  0  0  0  0  0  0  0  0
    3.7690    0.6806    0.0000 C   0  0  0  0  0  0  0  0  0  0  0  0
    5.0572   -0.0878    0.0000 C   0  0  0  0  0  0  0  0  0  0  0  0
    5.0359   -1.5877    0.0000 C   0  0  0  0  0  0  0  0  0  0  0  0
    6.3242   -2.3561    0.0000 C   0  0  0  0  0  0  0  0  0  0  0  0
    6.3028   -3.8559    0.0000 O   0  0  0  0  0  0  0  0  0  0  0  0
    7.6337   -1.6246    0.0000 C   0  0  0  0  0  0  0  0  0  0  0  0
    8.9220   -2.3930    0.0000 C   0  0  0  0  0  0  0  0  0  0  0  0
    8.9007   -3.8928    0.0000 O   0  0  0  0  0  0  0  0  0  0  0  0
   10.2315   -1.6615    0.0000 C   0  0  0  0  0  0  0  0  0  0  0  0
   11.5198   -2.4299    0.0000 O   0  0  0  0  0  0  0  0  0  0  0  0
   10.2528   -0.1617    0.0000 C   0  0  0  0  0  0  0  0  0  0  0  0
   11.5624    0.5698    0.0000 O   0  0  0  0  0  0  0  0  0  0  0  0
   11.5837    2.0697    0.0000 C   0  0  0  0  0  0  0  0  0  0  0  0
    8.9646    0.6067    0.0000 C   0  0  0  0  0  0  0  0  0  0  0  0
    7.6550   -0.1247    0.0000 C   0  0  0  0  0  0  0  0  0  0  0  0
    6.3668    0.6436    0.0000 O   0  0  0  0  0  0  0  0  0  0  0  0
    2.4594   -0.0509    0.0000 C   0  0  0  0  0  0  0  0  0  0  0  0
    1.1712    0.7175    0.0000 C   0  0  0  0  0  0  0  0  0  0  0  0
    1.1925    2.2173    0.0000 C   0  0  0  0  0  0  0  0  0  0  0  0
   -0.0958    2.9857    0.0000 O   0  0  0  0  0  0  0  0  0  0  0  0
   -1.4053    2.2542    0.0000 C   0  0  0  0  0  0  0  0  0  0  0  0
   -2.6936    3.0226    0.0000 C   0  0  0  0  0  0  0  0  0  0  0  0
   -4.0032    2.2912    0.0000 C   0  0  0  0  0  0  0  0  0  0  0  0
   -4.0245    0.7913    0.0000 C   0  0  0  0  0  0  0  0  0  0  0  0
   -5.3340    0.0598    0.0000 C   0  0  0  0  0  0  0  0  0  0  0  0
   -5.3553   -1.4400    0.0000 C   0  0  0  0  0  0  0  0  0  0  0  0
   -6.6649   -2.1715    0.0000 C   0  0  0  0  0  0  0  0  0  0  0  0
   -6.6862   -3.6713    0.0000 O   0  0  0  0  0  0  0  0  0  0  0  0
   -7.9532   -1.4031    0.0000 C   0  0  0  0  0  0  0  0  0  0  0  0
   -9.2627   -2.1346    0.0000 C   0  0  0  0  0  0  0  0  0  0  0  0
   -9.2840   -3.6344    0.0000 O   0  0  0  0  0  0  0  0  0  0  0  0
  -10.5510   -1.3662    0.0000 C   0  0  0  0  0  0  0  0  0  0  0  0
  -11.8605   -2.0976    0.0000 O   0  0  0  0  0  0  0  0  0  0  0  0
  -10.5297    0.1337    0.0000 C   0  0  0  0  0  0  0  0  0  0  0  0
  -11.8179    0.9021    0.0000 O   0  0  0  0  0  0  0  0  0  0  0  0
  -11.7966    2.4019    0.0000 C   0  0  0  0  0  0  0  0  0  0  0  0
   -9.2201    0.8651    0.0000 C   0  0  0  0  0  0  0  0  0  0  0  0
   -7.9319    0.0968    0.0000 C   0  0  0  0  0  0  0  0  0  0  0  0
   -6.6223    0.8282    0.0000 O   0  0  0  0  0  0  0  0  0  0  0  0
   -2.7362    0.0229    0.0000 C   0  0  0  0  0  0  0  0  0  0  0  0
   -1.4267    0.7544    0.0000 C   0  0  0  0  0  0  0  0  0  0  0  0
   -0.1384   -0.0140    0.0000 O   0  0  0  0  0  0  0  0  0  0  0  0
   -0.1597   -1.5138    0.0000 C   0  0  0  0  0  0  0  0  0  0  0  0
  1  2  1  0
  2  3  1  0
  3  4  2  0
  4  5  1  0
  5  6  1  0
  6  7  2  0
  7  8  1  0
  8  9  2  0
  8 10  1  0
 10 11  2  0
 11 12  1  0
 11 13  1  0
 13 14  1  0
 13 15  2  0
 15 16  1  0
 16 17  1  0
 15 18  1  0
 18 19  2  0
 19 20  1  0
  5 21  2  0
 21 22  1  0
 22 23  2  0
 23 24  1  0
 24 25  1  0
 25 26  2  0
 26 27  1  0
 27 28  2  0
 28 29  1  0
 29 30  2  0
 30 31  1  0
 31 32  2  0
 31 33  1  0
 33 34  2  0
 34 35  1  0
 34 36  1  0
 36 37  1  0
 36 38  2  0
 38 39  1  0
 39 40  1  0
 38 41  1  0
 41 42  2  0
 42 43  1  0
 28 44  1  0
 44 45  2  0
 45 46  1  0
 46 47  1  0
 23  3  1  0
 45 25  1  0
 20  6  1  0
 43 29  1  0
 19 10  1  0
 42 33  1  0
M  END
>  <identifier>  (41) 
CNP0080286.0

>  <canonical_smiles>  (41) 
COC1=CC(C2=CC(=O)C3=C(O)C(O)=C(OC)C=C3O2)=CC=C1OC1=CC=C(C2=CC(=O)C3=C(O)C(O)=C(OC)C=C3O2)C=C1OC

>  <standard_inchi>  (41) 
InChI=1S/C34H26O13/c1-41-23-9-15(21-11-17(35)29-25(46-21)13-27(43-3)31(37)33(29)39)5-7-19(23)45-20-8-6-16(10-24(20)42-2)22-12-18(36)30-26(47-22)14-28(44-4)32(38)34(30)40/h5-14,37-40H,1-4H3

>  <standard_inchi_key>  (41) 
LLSDPOXYUGFOKC-UHFFFAOYSA-N

>  <name>  (41) 
2-[4-[4-(5,6-dihydroxy-7-methoxy-4-oxochromen-2-yl)-2-methoxyphenoxy]-3-methoxyphenyl]-5,6-dihydroxy-7-methoxychromen-4-one

>  <iupac_name>  (41) 
2-[4-[4-(5,6-dihydroxy-7-methoxy-4-oxo-chromen-2-yl)-2-methoxy-phenoxy]-3-methoxy-phenyl]-5,6-dihydroxy-7-methoxy-chromen-4-one

>  <annotation_level>  (41) 
5

>  <total_atom_count>  (41) 
73

>  <heavy_atom_count>  (41) 
47

>  <molecular_weight>  (41) 
642.57

>  <exact_molecular_weight>  (41) 
642.13734

>  <molecular_formula>  (41) 
C34H26O13

>  <alogp>  (41) 
5.88

>  <topological_polar_surface_area>  (41) 
187.49

>  <rotatable_bond_count>  (41) 
8

>  <hydrogen_bond_acceptors>  (41) 
13

>  <hydrogen_bond_donors>  (41) 
4

>  <hydrogen_bond_acceptors_lipinski>  (41) 
13

>  <hydrogen_bond_donors_lipinski>  (41) 
4

>  <lipinski_rule_of_five_violations>  (41) 
3

>  <aromatic_rings_count>  (41) 
6

>  <qed_drug_likeliness>  (41) 
0.14

>  <formal_charge>  (41) 
0

>  <fractioncsp3>  (41) 
0.12

>  <number_of_minimal_rings>  (41) 
6

>  <van_der_walls_volume>  (41) 
525.59

>  <contains_sugar>  (41) 
False

>  <contains_ring_sugars>  (41) 
False

>  <contains_linear_sugars>  (41) 
False

>  <murcko_framework>  (41) 
O(c1ccc(cc1)C=2Oc3ccccc3CC2)c4ccc(cc4)C=5Oc6ccccc6CC5

>  <np_likeness>  (41) 
0.52

>  <chemical_class>  (41) 
Flavonoids

>  <chemical_sub_class>  (41) 
O-methylated flavonoids

>  <chemical_super_class>  (41) 
Phenylpropanoids and polyketides

>  <direct_parent_classification>  (41) 
3'-O-methylated flavonoids

>  <np_classifier_pathway>  (41) 
Shikimates and Phenylpropanoids

>  <np_classifier_superclass>  (41) 
Flavonoids

>  <np_classifier_class>  (41) 
Flavones

>  <np_classifier_is_glycoside>  (41) 
False

>  <organisms>  (41) 
Salvia circinata

>  <collections>  (41) 
BIOFACQUIM|Latin America dataset|NPASS

>  <dois>  (41) 
10.1021/acs.jnatprod.7b00155

>  <synonyms>  (41) 
CHEMBL4129380|6 6'' 3'''-trihydroxy-7 3' 7''-O-trimethylloniflavone

>  <cas>  (41) 
nan

$$$$

     RDKit          2D

 42 46  0  0  0  0  0  0  0  0999 V2000
    3.8921   -4.9556    0.0000 C   0  0  0  0  0  0  0  0  0  0  0  0
    5.0785   -4.0377    0.0000 O   0  0  0  0  0  0  0  0  0  0  0  0
    4.8767   -2.5513    0.0000 C   0  0  0  0  0  0  0  0  0  0  0  0
    3.4885   -1.9829    0.0000 C   0  0  0  0  0  0  0  0  0  0  0  0
    3.2867   -0.4965    0.0000 C   0  0  0  0  0  0  0  0  0  0  0  0
    1.8986    0.0719    0.0000 O   0  0  0  0  0  0  0  0  0  0  0  0
    0.7123   -0.8460    0.0000 C   0  0  0  0  0  0  0  0  0  0  0  0
   -0.6758   -0.2776    0.0000 O   0  0  0  0  0  0  0  0  0  0  0  0
   -1.8622   -1.1956    0.0000 C   0  0  0  0  0  0  0  0  0  0  0  0
   -3.2503   -0.6271    0.0000 C   0  0  0  0  0  0  0  0  0  0  0  0
   -4.4366   -1.5451    0.0000 O   0  0  0  0  0  0  0  0  0  0  0  0
   -5.8248   -0.9767    0.0000 C   0  0  0  0  0  0  0  0  0  0  0  0
   -7.1005   -1.7656    0.0000 O   0  0  0  0  0  0  0  0  0  0  0  0
   -8.2451   -0.7960    0.0000 C   0  0  0  0  0  0  0  0  0  0  0  0
   -7.6767    0.5921    0.0000 C   0  0  0  0  0  0  0  0  0  0  0  0
   -7.4093    2.0681    0.0000 O   0  0  0  0  0  0  0  0  0  0  0  0
   -9.1166    1.0123    0.0000 C   0  0  0  0  0  0  0  0  0  0  0  0
   -9.4727    2.4695    0.0000 O   0  0  0  0  0  0  0  0  0  0  0  0
   -6.1808    0.4805    0.0000 C   0  0  0  0  0  0  0  0  0  0  0  0
   -5.2113    1.6250    0.0000 O   0  0  0  0  0  0  0  0  0  0  0  0
   -1.6604   -2.6819    0.0000 C   0  0  0  0  0  0  0  0  0  0  0  0
   -2.8467   -3.5999    0.0000 O   0  0  0  0  0  0  0  0  0  0  0  0
   -0.2723   -3.2503    0.0000 C   0  0  0  0  0  0  0  0  0  0  0  0
   -0.0705   -4.7367    0.0000 O   0  0  0  0  0  0  0  0  0  0  0  0
    0.9141   -2.3324    0.0000 C   0  0  0  0  0  0  0  0  0  0  0  0
    2.3022   -2.9008    0.0000 O   0  0  0  0  0  0  0  0  0  0  0  0
    4.4731    0.4214    0.0000 C   0  0  0  0  0  0  0  0  0  0  0  0
    4.2713    1.9078    0.0000 C   0  0  0  0  0  0  0  0  0  0  0  0
    2.8831    2.4762    0.0000 C   0  0  0  0  0  0  0  0  0  0  0  0
    2.6814    3.9626    0.0000 C   0  0  0  0  0  0  0  0  0  0  0  0
    1.2932    4.5310    0.0000 C   0  0  0  0  0  0  0  0  0  0  0  0
    0.1069    3.6131    0.0000 C   0  0  0  0  0  0  0  0  0  0  0  0
   -1.2812    4.1815    0.0000 O   0  0  0  0  0  0  0  0  0  0  0  0
    0.3087    2.1267    0.0000 C   0  0  0  0  0  0  0  0  0  0  0  0
   -0.8776    1.2088    0.0000 O   0  0  0  0  0  0  0  0  0  0  0  0
    1.6968    1.5583    0.0000 C   0  0  0  0  0  0  0  0  0  0  0  0
    5.4576    2.8257    0.0000 C   0  0  0  0  0  0  0  0  0  0  0  0
    6.8457    2.2573    0.0000 C   0  0  0  0  0  0  0  0  0  0  0  0
    8.0321    3.1753    0.0000 O   0  0  0  0  0  0  0  0  0  0  0  0
    7.0475    0.7709    0.0000 O   0  0  0  0  0  0  0  0  0  0  0  0
    5.8612   -0.1470    0.0000 C   0  0  0  0  0  0  0  0  0  0  0  0
    6.0630   -1.6334    0.0000 C   0  0  0  0  0  0  0  0  0  0  0  0
  1  2  1  0
  2  3  1  0
  3  4  2  0
  4  5  1  0
  5  6  1  0
  7  6  1  1
  7  8  1  0
  8  9  1  0
  9 10  1  1
 10 11  1  0
 12 11  1  6
 12 13  1  0
 13 14  1  0
 14 15  1  0
 15 16  1  1
 15 17  1  0
 17 18  1  0
 15 19  1  0
 19 20  1  1
  9 21  1  0
 21 22  1  6
 21 23  1  0
 23 24  1  1
 23 25  1  0
 25 26  1  6
  5 27  2  0
 27 28  1  0
 28 29  1  0
 29 30  2  0
 30 31  1  0
 31 32  2  0
 32 33  1  0
 32 34  1  0
 34 35  1  0
 34 36  2  0
 28 37  2  0
 37 38  1  0
 38 39  2  0
 38 40  1  0
 40 41  1  0
 41 42  2  0
 42  3  1  0
 25  7  1  0
 41 27  1  0
 19 12  1  0
 36 29  1  0
M  END
>  <identifier>  (42) 
CNP0194920.1

>  <canonical_smiles>  (42) 
COC1=CC(O[C@@H]2O[C@H](CO[C@@H]3OC[C@](O)(CO)[C@H]3O)[C@@H](O)[C@H](O)[C@H]2O)=C2C(C3=CC=C(O)C(O)=C3)=CC(=O)OC2=C1

>  <standard_inchi>  (42) 
InChI=1S/C27H30O15/c1-37-12-5-16-20(13(7-19(31)40-16)11-2-3-14(29)15(30)4-11)17(6-12)41-25-23(34)22(33)21(32)18(42-25)8-38-26-24(35)27(36,9-28)10-39-26/h2-7,18,21-26,28-30,32-36H,8-10H2,1H3/t18-,21-,22+,23-,24+,25-,26-,27-/m1/s1

>  <standard_inchi_key>  (42) 
KNCNSYQYJUBLPW-NRIIMPDMSA-N

>  <name>  (42) 
888013-48-7

>  <iupac_name>  (42) 
5-[(2~{S},3~{R},4~{S},5~{S},6~{R})-6-[[(2~{R},3~{R},4~{R})-3,4-dihydroxy-4-(hydroxymethyl)tetrahydrofuran-2-yl]oxymethyl]-3,4,5-trihydroxy-tetrahydropyran-2-yl]oxy-4-(3,4-dihydroxyphenyl)-7-methoxy-chromen-2-one

>  <annotation_level>  (42) 
5

>  <total_atom_count>  (42) 
72

>  <heavy_atom_count>  (42) 
42

>  <molecular_weight>  (42) 
594.52

>  <exact_molecular_weight>  (42) 
594.15847

>  <molecular_formula>  (42) 
C27H30O15

>  <alogp>  (42) 
-1.48

>  <topological_polar_surface_area>  (42) 
238.20

>  <rotatable_bond_count>  (42) 
8

>  <hydrogen_bond_acceptors>  (42) 
15

>  <hydrogen_bond_donors>  (42) 
8

>  <hydrogen_bond_acceptors_lipinski>  (42) 
15

>  <hydrogen_bond_donors_lipinski>  (42) 
8

>  <lipinski_rule_of_five_violations>  (42) 
3

>  <aromatic_rings_count>  (42) 
3

>  <qed_drug_likeliness>  (42) 
0.11

>  <formal_charge>  (42) 
0

>  <fractioncsp3>  (42) 
0.44

>  <number_of_minimal_rings>  (42) 
5

>  <van_der_walls_volume>  (42) 
483.01

>  <contains_sugar>  (42) 
True

>  <contains_ring_sugars>  (42) 
True

>  <contains_linear_sugars>  (42) 
False

>  <murcko_framework>  (42) 
O1c2cccc(OC3OC(COC4OCCC4)CCC3)c2C(=CC1)c5ccccc5

>  <np_likeness>  (42) 
1.96

>  <chemical_class>  (42) 
Coumarins and derivatives

>  <chemical_sub_class>  (42) 
Coumarin glycosides

>  <chemical_super_class>  (42) 
Phenylpropanoids and polyketides

>  <direct_parent_classification>  (42) 
Coumarin glycosides

>  <np_classifier_pathway>  (42) 
Shikimates and Phenylpropanoids

>  <np_classifier_superclass>  (42) 
Coumarins

>  <np_classifier_class>  (42) 
Simple coumarins

>  <np_classifier_is_glycoside>  (42) 
True

>  <organisms>  (42) 
Hintonia standleyana

>  <collections>  (42) 
BIOFACQUIM|Latin America dataset|Super Natural II

>  <dois>  (42) 
10.1016/j.jep.2012.11.025

>  <synonyms>  (42) 
CHEMBL2335913|5-(((2S|3R|4S|5S|6R)-6-((((2R|3R|4R)-3|4-Dihydroxy-4-(hydroxymethyl)tetrahydrofuran-2-yl)oxy)methyl)-3|4|5-trihydroxytetrahydro-2H-pyran-2-yl)oxy)-4-(3|4-dihydroxyphenyl)-7-methoxy-2H-chromen-2-one|5-(6-O-D-Apio-beta-D-furanosyl-beta-D-glucopyranosyl)oxy-4-(3|4-dihydroxyphenyl)-7-methoxy-2H-1-benzopyran-2-one|5-O-b-D-apiofuranosyl-(1-6)-b-D-glucopyranosyl-7-methoxy-3' 4'-dihydroxy-4-phenylcoumarin

>  <cas>  (42) 
nan

$$$$

     RDKit          2D

 25 26  0  0  0  0  0  0  0  0999 V2000
   -0.0815   -1.7896    0.0000 O   0  0  0  0  0  0  0  0  0  0  0  0
    0.2871   -0.3356    0.0000 C   0  0  0  0  0  0  0  0  0  0  0  0
    1.7307    0.0722    0.0000 C   0  0  0  0  0  0  0  0  0  0  0  0
    2.8055   -0.9741    0.0000 C   0  0  0  0  0  0  0  0  0  0  0  0
    4.2491   -0.5663    0.0000 C   0  0  0  0  0  0  0  0  0  0  0  0
    5.3239   -1.6125    0.0000 C   0  0  0  0  0  0  0  0  0  0  0  0
    6.7674   -1.2048    0.0000 C   0  0  0  0  0  0  0  0  0  0  0  0
    7.1361    0.2492    0.0000 C   0  0  0  0  0  0  0  0  0  0  0  0
    8.5796    0.6570    0.0000 O   0  0  0  0  0  0  0  0  0  0  0  0
    6.0612    1.2954    0.0000 C   0  0  0  0  0  0  0  0  0  0  0  0
    6.4298    2.7494    0.0000 O   0  0  0  0  0  0  0  0  0  0  0  0
    4.6177    0.8877    0.0000 C   0  0  0  0  0  0  0  0  0  0  0  0
   -0.7877    0.7107    0.0000 O   0  0  0  0  0  0  0  0  0  0  0  0
   -2.2313    0.3029    0.0000 C   0  0  0  0  0  0  0  0  0  0  0  0
   -3.3061    1.3492    0.0000 C   0  0  0  0  0  0  0  0  0  0  0  0
   -4.7497    0.9414    0.0000 C   0  0  0  0  0  0  0  0  0  0  0  0
   -4.9006    2.4338    0.0000 O   0  0  0  0  0  0  0  0  0  0  0  0
   -6.2456    1.0520    0.0000 C   0  0  0  0  0  0  0  0  0  0  0  0
   -7.0893   -0.1883    0.0000 O   0  0  0  0  0  0  0  0  0  0  0  0
   -6.8978    2.4028    0.0000 O   0  0  0  0  0  0  0  0  0  0  0  0
   -5.1183   -0.5126    0.0000 C   0  0  0  0  0  0  0  0  0  0  0  0
   -4.0434   -1.5588    0.0000 C   0  0  0  0  0  0  0  0  0  0  0  0
   -4.4120   -3.0128    0.0000 O   0  0  0  0  0  0  0  0  0  0  0  0
   -2.5999   -1.1511    0.0000 C   0  0  0  0  0  0  0  0  0  0  0  0
   -1.5250   -2.1973    0.0000 O   0  0  0  0  0  0  0  0  0  0  0  0
  1  2  2  0
  2  3  1  0
  3  4  2  0
  4  5  1  0
  5  6  2  0
  6  7  1  0
  7  8  2  0
  8  9  1  0
  8 10  1  0
 10 11  1  0
 10 12  2  0
  2 13  1  0
 14 13  1  1
 14 15  1  0
 15 16  1  0
 16 17  1  6
 16 18  1  0
 18 19  2  0
 18 20  1  0
 16 21  1  0
 21 22  1  0
 22 23  1  6
 22 24  1  0
 24 25  1  6
 12  5  1  0
 24 14  1  0
M  END
>  <identifier>  (43) 
CNP0148557.1

>  <canonical_smiles>  (43) 
O=C(/C=C/C1=CC=C(O)C(O)=C1)O[C@@H]1C[C@](O)(C(=O)O)C[C@@H](O)[C@H]1O

>  <standard_inchi>  (43) 
InChI=1S/C16H18O9/c17-9-3-1-8(5-10(9)18)2-4-13(20)25-12-7-16(24,15(22)23)6-11(19)14(12)21/h1-5,11-12,14,17-19,21,24H,6-7H2,(H,22,23)/b4-2+/t11-,12-,14-,16+/m1/s1

>  <standard_inchi_key>  (43) 
CWVRJTMFETXNAD-JUHZACGLSA-N

>  <name>  (43) 
CHLOROGENIC ACID

>  <iupac_name>  (43) 
(1~{S},3~{R},4~{R},5~{R})-3-[(~{E})-3-(3,4-dihydroxyphenyl)prop-2-enoyl]oxy-1,4,5-trihydroxy-cyclohexanecarboxylic acid

>  <annotation_level>  (43) 
5

>  <total_atom_count>  (43) 
43

>  <heavy_atom_count>  (43) 
25

>  <molecular_weight>  (43) 
354.31

>  <exact_molecular_weight>  (43) 
354.09508

>  <molecular_formula>  (43) 
C16H18O9

>  <alogp>  (43) 
-0.65

>  <topological_polar_surface_area>  (43) 
164.75

>  <rotatable_bond_count>  (43) 
4

>  <hydrogen_bond_acceptors>  (43) 
8

>  <hydrogen_bond_donors>  (43) 
6

>  <hydrogen_bond_acceptors_lipinski>  (43) 
8

>  <hydrogen_bond_donors_lipinski>  (43) 
6

>  <lipinski_rule_of_five_violations>  (43) 
1

>  <aromatic_rings_count>  (43) 
1

>  <qed_drug_likeliness>  (43) 
0.23

>  <formal_charge>  (43) 
0

>  <fractioncsp3>  (43) 
0.38

>  <number_of_minimal_rings>  (43) 
2

>  <van_der_walls_volume>  (43) 
298.88

>  <contains_sugar>  (43) 
False

>  <contains_ring_sugars>  (43) 
False

>  <contains_linear_sugars>  (43) 
False

>  <murcko_framework>  (43) 
O(CC=Cc1ccccc1)C2CCCCC2

>  <np_likeness>  (43) 
2.25

>  <chemical_class>  (43) 
Organooxygen compounds

>  <chemical_sub_class>  (43) 
Alcohols and polyols

>  <chemical_super_class>  (43) 
Organic oxygen compounds

>  <direct_parent_classification>  (43) 
Quinic acids and derivatives

>  <np_classifier_pathway>  (43) 
Shikimates and Phenylpropanoids

>  <np_classifier_superclass>  (43) 
Phenylpropanoids (C6-C3)

>  <np_classifier_class>  (43) 
Cinnamic acids and derivatives

>  <np_classifier_is_glycoside>  (43) 
False

>  <organisms>  (43) 
Abrus pulchellus subsp. cantoniensis|Abutilon theophrasti|Acacia armata|Acacia aulacocarpa|Acacia nilotica|Achillea clypeolata|Achillea millefolium|Aconitum pseudohuiliense|Aconitum sachalinense|Acrocarpia paniculata|Actinidia deliciosa|Actinomadura hibisca|Adenia volkensii|Adina racemosa|Adonis sutchuenensis|Agaricus hortensis|Agave salmiana|Aglaia laxiflora|Akebia quinata|Akebia trifoliata|Alangium villosum|Alcyonium molle|Aloe africana|Aloe ferox|Aloe spicata|Aloe vera|Alstonia deplanchei|Amanita cokeri|Anastrepha suspensa|Andrographis paniculata|Anemone flaccida|Anethum graveolens|Angelica acutiloba|Angelica furcijuga KITAGAWA|Angelica gigas|Angelica pubescens|Angelica sinensis|Anodendron affine|Anthemis altissima|Apiaceae|Apis mellifera|Aplophyllum popovii|Apocynum venetum|Aralia continentalis|Arctium lappa|Arcytophyllum thymifolium|Ardisia japonica|Ardisia neriifolia|Argemone grandiflora|Arnica montana cv.ARBO|Aronia melanocarpa|Artemisia annua L.|Artemisia apiacea|Artemisia argyi|Artemisia capillaries|Artemisia capillaris|Artemisia carvifolia|Artemisia dracunculus|Artemisia glabella|Artemisia iwayomogi|Artemisia montana|Artemisia princeps|Artemisia scoparia|Artocarpus altilis|Aspergillus caespitosus|Aspidosperma subincanum|Aster koraiensis|Aster salignus|Aster tataricus|Asteriscus graveolens|Astilbe koreana|Astragalus cicer|Astragalus ernestii|Athanasia crithmifolia|Baccharis angustifolia|Baccharis megapotamica|Baccharis spp.|Ballota hispanica|Bambusa chungii|Baptisia versicolor|Benzoin praecox|Berberis julianae|Berneuxia thibetica|Bistorta manshuriensis|Bistorta officinalis|Blechnopsis orientalis|Blechnum orientale|Bombus muscorum|Bongardia chrysogonum|Boronia muelleri|Brassica oleracea var. sabauda|Brassica oleracea var.capitata|Briareum asbestinum|Bridelia ferruginea|Brugmansia arborea|Brunfelsia grandiflora D.DON|Bunodosoma caissarum|Burkholderia cepacia|Bystropogon origanifolius|Cacalia bicolor|Callicarpa maingayi|Calligonum leucocladum|Camellia sinensis|Cardamine pinnata|Cassia carnaval|Cathormion altissimum|Cedrela salvadorensis|Centaurea gigantea|Centaurea solstitialis|Centella asiatica|Centipeda minima|Centroceras clavulatum|Centrosema pascuorum|Cephalaria uralensis|Ceratozamia fuscoviridis|Cerbera dilatata|Chaenomeles sinensis|Chaenomeles speciosa|Chaerophyllum hirsutum|Chara ceratophylla|Chimarrhis turbinata|Chrozophora spp.|Chrysanthemum indicum|Chrysanthemum indicum L.|Chrysanthemum morifolium|Chrysanthemum x morifolium|Chrysothamnus parryi|Cichorium glandulosum|Cichorium intybus|Cinchona spp.|Cirsium setosum|Citrullus colocynthis|Citrus glauca|Cladogynos orientalis|Cladonia fallax|Clathria basilana|Clusia ellipticifolia|Cneorum pulverulentum|Cnidium officinale|Codium decorticatum|Codonocarpus australis|Coffea arabica|Colchicum macedonicum|Conoideocrella tenuis|Coprosma acerosa|Coptis chinensis|Coptis deltoidea|Coptis japonica|Coptis teeta|Cortex eucommiae|Cosmos diversifolius|Cotoneaster simonsii|Cranfillia vulcanica|Crataegus cuneata|Crataegus oxyacantha|Crataegus pinnatifida|Crataegus pinnatifida var. major|Crataegus pinnatifida var.major|Crataegus rhipidophylla|Crateva nurvala|Critonia quadrangularis|Crotalaria aegyptiaca|Croton tiglium|Cryptocarya aschersoniana|Cryptocarya oblata|Cryptotermes cynocephalus|Cucurbita maxima|Cucurbita moschata|Curculigo orchioides|Curcuma caesia|Cuscuta australis|Cuscuta chinensis|Cyanospira rippkae|Cydonia oblonga|Cylindrospermopsis raciborskii|Cymathere triplicata|Cynara cardunculus var. scolymus|Dacrydium fonki|Dalbergia frutescens|Daucus carota|Desmodium styracifolium|Dichrocephala bicolor|Dicliptera riparia|Dicoma capensis|Digitalis isabelliana|Digitalis viridiflora|Dillenia papuana|Diospyros tricolor|Diospyros verrucosa|Dipsacus asper|Dipsacus asperoides|Dodonaea viscosa|Drymonia macrophylla|Dumoria heckeli|Eclipta prostrata|Eleutherococcus senticosus|Elizabethkingia meningoseptica|Encyothalia cliftonii|Epimedium brevicornu|Epimedium grandiflorum|Epimedium koreanum|Epimedium pubescens|Epimedium sagittatum|Epimedium sempervirens|Epimedium wushanense|Equisetum hyemale|Eragrostis curvula|Erigeron breviscapus|Erigeron crispus|Eriobotrya japonica|Eriocaulon buergerianum|Eriostemon deserti|Erwinia rhapontici|Erycibe hainanesis|Erycibe obtusifolia|Erycibe schimidtii|Erycibe schmidtii|Erythrina americana|Erythrina pallida|Erythrophleum couminga|Etlingera elatior|Eucalyptus australiana|Eucommia ulmoides|Eucommia ulmoides Oliver|Eugenia jambolana|Euonymus nanoides|Eupatorium argentinum|Eupatorium gracile|Eupatorium lindleyanum|Eupatorium petiolare|Eupatorium rebaudianum|Euphorbia caducifolia|Euphorbia clarkeana|Euphorbia hirta|Euphorbia turczaninowii|Fagara chalybea|Fagopyrum cymosum|Falcaria vulgaris|Fallopia multiflora|Ficus elastica|Ficus simplicissima|Flemingia congesta|Foeniculum vulgare|Fomes cajanderi|Forsythia suspensa|Forsythia suspense|Forsythia viridissima|Fraxinus chinensis|Fraxinus chinensis subsp. rhynchophylla|Fraxinus stylosa|Fraxinus szaboana|Fritillaria meleagris|Fructus mori|Galium verum|Garcinia cambogia|Garcinia jasminoides|Gardenia jasminoides|Gentiana pyrenaica|Geranium sylvaticum|Ginkgo biloba|Glechoma grandis|Glechoma longituba|Glehnia littoralis|Gloxinia erinoides|Glycine max|Gossypium barbadense|Grataegus pinnatifida|Guatteria boliviana|Gynura elliptica|Haliclona mucosa|Haplophyllum dauricum|Haplophyllum ferganicum|Helianthopsis bishopii|Helianthus annuus|Helianthus annuus L.cv.Peredovick|Helichrysum italicum|Hemerocallis fulva|Hertia cheirifolia|Hibiscus sabdariffa|Hintonia standleyana|Hippophae rhamnoides|Homo sapiens|Houttuynia cordata|Humulus lupulus|Hydrastis canadensis|Hypericum japonicum|Hypericum papuanum|Hypericum perforatum|Hypericum spp.|Hypselodoris cantabrica|Ilex canariensis|Ilex kaushue|Imperata cylindrica var. major|Inga velutina|Inula britannica|Inula helenium|Inula japonica|Inula thapsoides|Ipomoea nil|Ipomoea njil cv. Danjuro|Ircinia spinosula|Iris pallasii|Isatis tinctoria|Isodon rubescens|Isophysis tasmanica|Jacobaea subalpina|Juglans regia|Juniperus brevifolia|Kalopanax septemlobus|Kandelia candel|Kaunia arbuscularis|Lactobacillus casei|Lactuca indica|Lactuca serriola|Lagochilus leiacanthus|Lavandula pedunculata|Lecanora planaica|Lecocarpus pinnatifidus|Leontodon autumnalis|Licaria chrysophylla|Ligularia speciosa|Ligusticum chuanxiong|Ligusticum sinense|Lilium brownii|Lilium brownii f. e. brown var. colchesteri wils|Lilium lancifolium|Lilium pumilum|Limeum pterocarpum|Linaria maroccana|Lomatium macrocarpum|Lonchocarpus laxiflorus|Lonicera confusa|Lonicera confuse|Lonicera dasystyla|Lonicera fulvotomentosa|Lonicera hypoglauca|Lonicera implexa|Lonicera japonica|Lonicera macranthoides|Lonicera similis|Lophatherum gracile|Loropetalum chinense|Lupinus formosus|Lycium barbarum|Lycium chinense|Lysimachia christinae|Lythrum salicaria|Macrocystidia cucumis|Maesa chisia|Mahonia simonsii|Mandragora autumnalis|Manilkara zapota|Mantella aurantiaca|Marrubium supinum|Marrubium velutinum|Marsdenia cundurango|Marsdenia tenacissima|Matricaria matricarioides|Matteuccia struthiopteris|Melia azedarach|Melia azedarach var. toosendan|Merendera sobolifera|Metalasia bolusii|Metasequoia glyptostroboides|Mimosa pudica|Mortierella elongata|Morus alba|Morus bombycis|Murraya exotica|Murraya paniculata|Mycobacterium tuberculosis|Nanodea muscosa|Nardostachys jatamansi|Nelumbo nucifera|Neolentinus lepideus|Nerita albicilla|Nicotiana tabacum|Ocimum pilosum|Onobrychis viciifolia|Onopordum acanthium|Ophiorrhiza liukiuensis|Ormosia hosiei|Ormosia nobilis|Ornithoglossum viride|Orthosphenia mexicana|Oryza sativa|Ostrinia nubilalis|Oxandra xylopioides|Oxyanthus speciosus|Paeonia lactiflora|Paeonia rockii|Paeonia suffruticosa|Palicourea alpina|Panax quinquefolius|Parmelia enteromorpha|Passiflora murucuja|Peltophorum africanum|Penicillium alutaceum|Perilla frutescens|Peritassa compta|Perovskia abrotanoides|Persicaria thunbergii|Persicaria tinctoria|Pertusaria truncata|Petasites formosanus|Petasites japonicus|Petasites laevigatus|Peucedanum officinale|Phaseolus vulgaris|Phelline lucida|Phellodendron amurense|Phellodendron chinense|Phellodendron chinese|Phlomis brunneogaleata|Phlomoides rotata|Phoma medicaginis|Piptostigma fugax|Plantago bellardi|Plantago cretica|Plantago lundborgii|Plantago major|Platyphora ligata|Pleogyne cunninghami|Pleogyne cunninghamii|Pocillopora eydouxi|Podocarpus philippinensis|Pogostemon cablin|Polygala amara|Polygonum aviculare|Polygonum bistorta|Polygonum cuspidatum|Polypodium decumanum|Polypodium vulgare|Polysiphonia elongata|Porophyllum ruderale|Portulaca oleracea|Posoqueria latifolia|Preussia aemulans|Prunella vulgaris|Prunus armeniaca|Prunus avium|Prunus cerasus|Prunus domestica|Prunus mume|Pseudallescheria boydii|Pseudocyphellaria impressa|Psiadia dentata|Psorothamnus spinosus|Psychotria correae|Pteris radiata|Pterocaulon virgatum|Punica granatum|Pyrola decorata|Pyrrosia davidii|Pyrrosia drakeana|Pyrrosia gralla|Pyrrosia lingua|Pyrrosia petiolosa|Pyrrosia pseudocalvata|Pyrrosia sheareri|Pyrrosia tricuspis|Pyxine coccifera|Quercus dentata|Quercus glauca|Quercus serrata|Relhania pumila|Relicina connivens|Reseda muricata C.Presl.|Rhaponticum carthamoides|Rheedia acuminata|Rheum tanguticum|Rhinella arenarum|Rhinoceros sondaicus|Rhododendron dauricum|Rhododendron groenlandicum|Rhododendron mucronatum|Rhododendron ungerni|Rhodomyrtus tomentosa|Robinia pseudoacacia|Rosa chinensis|Rosa rugosa|Rubia tetragona|Rubus chingii|Rubus coreanus|Rubus loganobaccus|Rubus rosa|Russula japonica|Ruta oreojasme|Rydingia integrifolia|Salacia prinoides|Salia triloba|Salix sieboldiana|Salmonella enterica subsp. enterica serovar typhimurium|Salvia albimaculata|Salvia bicolor|Salvia hispanica|Salvia horminum|Salvia lineata|Salvia miltiorrhiza|Salvia officinalis L.|Salvia triloba|Salvia xalapensis|Sambucus ebulus|Sapium sebiferum|Sarcandra glabra|Sargentodoxa cuneata|Saussurea involucrata|Saxifraga azizoon|Scabiosa spp.|Schisandra chinensis|Schizanthus tricolor|Schizonepeta multifida|Scopolia carniolica|Scopolia hladnikiana|Scopolia japonica|Scopolia parviflora|Scorzonera divaricata|Scrophularia smithii|Scutellaria baicalensis|Scutellaria barbata|Senecio latifolius|Senecio nemorensis|Senecio rivularis|Senecio scandens|Senecio spp.|Septoria pistaciarum|Sideritis arborescens|Sideritis catillaris|Sinoadina racemosa|Smilax china|Solanum elaeagnifolium|Solanum habrochaites|Solanum lycopersicum|Solanum meridense|Solanum neorickii|Solanum nigrum|Solanum parviflorum|Solanum pennellii|Solanum pimpinellifollium|Solanum pseudoquina|Solanum torvum|Solanum tuberosum|Solanum tuberosum L.|Solenopsis punctaticeps|Solidago altissima L.|Solidago canadensis|Solidago decurrens|Sonchus ortunoi|Sophora gypsophila|Sophora microphylla|Sphaeranthus confertifolius|Stachytapheta jamaicensis|Stachytarpheta jamaicensis|Stephania sutchuenensis|Stevia mercedensis|Stilpnopappus pickelii|Streptomyces PM9|Streptomyces alboverticillatus|Streptomyces ehimensis|Streptomyces fulvoviridis|Streptomyces fumanus|Streptomyces lavendofoliae|Streptomyces odorifer|Streptomyces roseoviolaceus|Streptomyces viridogenes|Streptomyces xantholiticus|Strychnos Nux|Strychnos colubrina|Strychnos lucida|Strychnos nux-vomica|Strychnos tabascana|Strychnos tricalysioides|Styrax ferrugineus|Styrax perkinsiae|Swertia japonica|Swinglea glutinosa|Symphyocladia latiuscula|Symploca hydnoides|Talaromyces pinophilus|Tanacetum santolinoides|Taraxacum borealisinense|Taraxacum coreanum|Taraxacum formosanum|Taraxacum mongolicum|Taraxacum officinale|Taraxacum platycarpum|Taraxacum sinicum|Tethya amamensis|Tetragonia tetragonioides|Tetraneuris acaulis|Thea sinensis|Theobroma cacao|Thuja standishii|Thymus bashkiriensis|Thymus quinquecostatus|Thymus vulgaris|Toxicodendron vernicifluum|Trachelospermum asiaticum|Trachelospermum asiaticum var.intermedium|Trichodesma incanum|Trifolium alexandrium|Trifolium alpestre|Trifolium medium|Trifolium pratense|Trifolium pratense L.|Tropaeolum majus|Turbo argyrostoma|Tussilago farfara|Tylophora flava|Uncaria macrophylla|Uncaria rhynchophylla|Uncaria sinensis|Unonopsis glaucopetala|Urochloa decumbens|Urtica dioica|Vaccinium corymbosum|Vachellia nilotica|Valeriana jatamansi|Valeriana jatamansii|Valeriana prionophylla|Valeriana spp.|Verbesina rupestris|Vinca erecta|Vinca major|Vincetoxicum hirundinaria|Vitex negundo|Wunderlichia mirabilis|Xanthium sibiricum|Xanthium strumarium|Xanthorrhoea resinosa|Xenia florida|Xenia obscuronata|Zanthoxylum ailanthoides|Zieria smithii|Zilla spinosa|Ziziphus jujuba|dracocephalum ruyschiana

>  <collections>  (43) 
ANPDB|AnalytiCon Discovery NPs|BIOFACQUIM|CMAUP (cCollective molecular activities of useful plants)|ChEBI NPs|ChemSpider NPs|DrugBankNP|EMNPD|ETM (Ethiopian Traditional Medicine) DB|FooDB|GNPS (Global Natural Products Social Molecular Networking)|Indofine Chemical Company|KNApSaCK|Latin America dataset|NANPDB (Natural Products from Northern African Sources)|NPACT|NPASS|NPEdia|NuBBEDB|Phenol-explorer|Phyto4Health|SANCDB|Specs Natural Products|StreptomeDB|Super Natural II|TCMDB-Taiwan (Traditional Chinese Medicine database)|TIPdb (database of Taiwan indigenous plants)|VietHerb

>  <dois>  (43) 
10.1007/s00425-015-2460-8|10.1016/j.bmcl.2014.09.087|10.1016/j.bmcl.2015.02.048|10.1016/j.jep.2012.11.025|10.1021/acs.jnatprod.6b01026|10.1021/jf9810261|10.1021/np050522y|10.1021/np300609u|10.1055/a-0594-9527|10.1111/1750-3841.12404

>  <synonyms>  (43) 
327-97-9|3-O-Caffeoylquinic acid|Chlorogenate|Heriguard|3-(3|4-Dihydroxycinnamoyl)quinic acid|Hlorogenic acid|trans-Chlorogenic acid|CP chlorogenic acid|Caffeoyl quinic acid|Chlorogenicacid|5-CQA|(+)-Chlorogenic acid|NSC-407296|CCRIS 1400|Chlorogenic acid MI|trans-Caffeic acid 5-o-D-quinate|202650-88-2|EINECS 206-325-6|Chlorogenic acid WHO-DD|UNII-318ADP12RI|NSC 70861|NSC-70861|318ADP12RI|CHEBI:16112|trans-5-O-Caffeoylquinic acid|MFCD00003862|(1S|3R|4R|5R)-3-(E)-3-(3|4-dihydroxyphenyl)prop-2-enoyloxy-1|4|5-trihydroxycyclohexane-1-carboxylic acid|CHEMBL284616|DTXCID604786|Cyclohexanecarboxylic acid| 3-((3-(3|4-dihydroxyphenyl)-1-oxo-2-propenyl)oxy)-1|4|5-trihydroxy-| (1S-(1-alpha|3-beta|4-alpha|5-alpha))-|DTXSID3024786|1|3|4|5-tetrahydroxycyclohexanecarboxylic acid 3-(3|4-dihydroxycinnamate)|Cyclohexanecarboxylic acid| 3-(((2E)-3-(3|4-dihydroxyphenyl)-1-oxo-2-propen-1-yl)oxy)-1|4|5-trihydroxy-| (1S|3R|4R|5R)-|Chlorogenic acid (constituent of st. john's wort) DSC|CHLOROGENIC ACID (USP-RS)|Chlorogenic acid hemihydrate|3-O-caffeoyl-D-quinic acid|Caffetannic acid|3-Caffeoylquinate|Acid| Chlorogenic|3-3-(3|4-Dihydroxyphenyl)-1-oxo-2-propenyloxy 1|4|5-trihydroxycyclohexanecarboxylic acid|(1S|3R|4R|5R)-3-(((3-(3|4-dihydroxyphenyl)acryloyl)oxy)-1|4|5-trihydroxycyclohexanecarboxylic acid|1S-(1alpha|3beta|4alpha|5alpha)-3-3-(3|4-Dihydroxyphenyl)-1-oxo-2-propenyloxy-1|4|5-trihydroxycyclohexanecarboxylic acid|3 Caffeoylquinic Acid|Acid| 3-Caffeoylquinic|3-trans-Caffeoylquinic acid|Hlorogenate|Helianthic acid|Igasuric acid|3-(3|4-Dihydroxycinnamoyl)quinate|CAS-327-97-9|Prestwick_112|Chlorogenic Acid1510|Chlorogenic acid (8CI)|Prestwick2_000427|Spectrum5_000733|bmse000387|Quinic acid| 5-caffeoyl-|SCHEMBL19466|BSPBio_000414|BSPBio_003353|SPECTRUM210800|MLS002153805|BIDD:ER0453|BPBio1_000456|Quinic acid| 3-caffeoyl-| E-|ACon1_000581|CHEBI:95271|GTPL12477|BDBM513080|DTXSID101318952|HMS1569E16|HMS1923C11|HMS2096E16|HMS2235F03|HMS3649E06|HY-N0055|Tox21_202495|BDBM50327036|CCG-38471|s2280|AKOS015955866|AC-6032|Chlorogenic acid| >=95% (titration)|CS-3766|DB12029|SDCCGMLS-0066467.P001|NCGC00168941-01|NCGC00260044-01|(1S|3R|4R|5R)-3-(E)-3-(3|4-DIHYDROXY-PHENYL)-ACRYLOYLOXY-1|4|5-TRIHYDROXY-CYCLOHEXANECARBOXYLIC ACID|1ST40089|AS-12284|SMR000857273|Chlorogenic acid 1000 microg\/mL in Acetone|NS00015066|C00852|F16266|Q421964|SR-01000841185|SR-01000946600|D54CAE3D-CDDA-455D-A28E-77FC9EFE4A43|BRD-K47114202-001-06-2|32CF6D13-8F08-485F-B79E-F8A6AC318E07|Chlorogenic acid| primary pharmaceutical reference standard|Chlorogenic acid| European Pharmacopoeia (EP) Reference Standard|Chlorogenic acid| United States Pharmacopeia (USP) Reference Standard|3-(E)-3-(3|4-Dihydroxy-phenyl)-acryloyloxy-1|4|5-trihydroxy-cyclohexanecarboxylic acid|Chlorogenic acid (constituent of echinacea angustifolia root| echinacea pallida root| echinacea purpurea root and echinacea purpurea aerial parts)|CYCLOHEXANECARBOXYLIC ACID| 3-((3-(3|4-DIHYDROXYPHENYL)-1-OXO-2-PROPENYL)OXY)-1|4|5-TRIHYDROXY-| (1S-(1-.ALPHA.|3-.BETA.|4-.ALPHA.|5-.ALPHA.))-|trans-5-O-caffeoyl-D-quinate|CHLOROGENIC ACID with HPLC|FSL0458

>  <cas>  (43) 
327-97-9|202650-88-2

$$$$

     RDKit          2D

 41 45  0  0  0  0  0  0  0  0999 V2000
   -5.5524    2.6484    0.0000 C   0  0  0  0  0  0  0  0  0  0  0  0
   -5.9897    1.2136    0.0000 C   0  0  0  0  0  0  0  0  0  0  0  0
   -4.9657    0.1174    0.0000 O   0  0  0  0  0  0  0  0  0  0  0  0
   -5.4030   -1.3174    0.0000 C   0  0  0  0  0  0  0  0  0  0  0  0
   -4.3791   -2.4135    0.0000 O   0  0  0  0  0  0  0  0  0  0  0  0
   -2.9178   -2.0748    0.0000 C   0  0  0  0  0  0  0  0  0  0  0  0
   -1.8939   -3.1710    0.0000 C   0  0  0  0  0  0  0  0  0  0  0  0
   -0.4326   -2.8323    0.0000 C   0  0  0  0  0  0  0  0  0  0  0  0
    0.5913   -3.9284    0.0000 O   0  0  0  0  0  0  0  0  0  0  0  0
    0.0047   -1.3974    0.0000 C   0  0  0  0  0  0  0  0  0  0  0  0
    1.4659   -1.0587    0.0000 C   0  0  0  0  0  0  0  0  0  0  0  0
    2.4899   -2.1549    0.0000 O   0  0  0  0  0  0  0  0  0  0  0  0
    1.9033    0.3761    0.0000 C   0  0  0  0  0  0  0  0  0  0  0  0
    3.3645    0.7148    0.0000 O   0  0  0  0  0  0  0  0  0  0  0  0
    4.3885   -0.3813    0.0000 C   0  0  0  0  0  0  0  0  0  0  0  0
    3.9512   -1.8162    0.0000 O   0  0  0  0  0  0  0  0  0  0  0  0
    4.9751   -2.9123    0.0000 C   0  0  0  0  0  0  0  0  0  0  0  0
    4.5378   -4.3471    0.0000 C   0  0  0  0  0  0  0  0  0  0  0  0
    6.4364   -2.5736    0.0000 C   0  0  0  0  0  0  0  0  0  0  0  0
    7.4603   -3.6697    0.0000 O   0  0  0  0  0  0  0  0  0  0  0  0
    6.8737   -1.1388    0.0000 C   0  0  0  0  0  0  0  0  0  0  0  0
    8.3349   -0.8001    0.0000 O   0  0  0  0  0  0  0  0  0  0  0  0
    5.8497   -0.0426    0.0000 C   0  0  0  0  0  0  0  0  0  0  0  0
    6.2870    1.3922    0.0000 O   0  0  0  0  0  0  0  0  0  0  0  0
    0.8793    1.4722    0.0000 C   0  0  0  0  0  0  0  0  0  0  0  0
    1.3166    2.9071    0.0000 C   0  0  0  0  0  0  0  0  0  0  0  0
    2.7779    3.2458    0.0000 C   0  0  0  0  0  0  0  0  0  0  0  0
    3.2152    4.6806    0.0000 C   0  0  0  0  0  0  0  0  0  0  0  0
    2.1912    5.7768    0.0000 C   0  0  0  0  0  0  0  0  0  0  0  0
    2.6285    7.2116    0.0000 O   0  0  0  0  0  0  0  0  0  0  0  0
    0.7300    5.4381    0.0000 C   0  0  0  0  0  0  0  0  0  0  0  0
    0.2926    4.0032    0.0000 C   0  0  0  0  0  0  0  0  0  0  0  0
   -0.5820    1.1335    0.0000 O   0  0  0  0  0  0  0  0  0  0  0  0
   -1.0193   -0.3013    0.0000 C   0  0  0  0  0  0  0  0  0  0  0  0
   -2.4805   -0.6400    0.0000 C   0  0  0  0  0  0  0  0  0  0  0  0
   -6.8643   -1.6561    0.0000 C   0  0  0  0  0  0  0  0  0  0  0  0
   -7.3016   -3.0910    0.0000 O   0  0  0  0  0  0  0  0  0  0  0  0
   -7.8883   -0.5600    0.0000 C   0  0  0  0  0  0  0  0  0  0  0  0
   -9.3495   -0.8987    0.0000 O   0  0  0  0  0  0  0  0  0  0  0  0
   -7.4510    0.8749    0.0000 C   0  0  0  0  0  0  0  0  0  0  0  0
   -8.4749    1.9710    0.0000 O   0  0  0  0  0  0  0  0  0  0  0  0
  2  1  1  6
  2  3  1  0
  3  4  1  0
  4  5  1  1
  5  6  1  0
  6  7  2  0
  7  8  1  0
  8  9  1  0
  8 10  2  0
 10 11  1  0
 11 12  2  0
 11 13  1  0
 13 14  1  0
 15 14  1  1
 15 16  1  0
 16 17  1  0
 17 18  1  6
 17 19  1  0
 19 20  1  1
 19 21  1  0
 21 22  1  6
 21 23  1  0
 23 24  1  6
 13 25  2  0
 25 26  1  0
 26 27  2  0
 27 28  1  0
 28 29  2  0
 29 30  1  0
 29 31  1  0
 31 32  2  0
 25 33  1  0
 33 34  1  0
 34 35  2  0
  4 36  1  0
 36 37  1  6
 36 38  1  0
 38 39  1  6
 38 40  1  0
 40 41  1  1
 40  2  1  0
 35  6  1  0
 34 10  1  0
 23 15  1  0
 32 26  1  0
M  END
>  <identifier>  (44) 
CNP0219489.1

>  <canonical_smiles>  (44) 
C[C@@H]1O[C@@H](OC2=CC(O)=C3C(=O)C(O[C@@H]4O[C@@H](C)[C@H](O)[C@@H](O)[C@H]4O)=C(C4=CC=C(O)C=C4)OC3=C2)[C@H](O)[C@H](O)[C@H]1O

>  <standard_inchi>  (44) 
InChI=1S/C27H30O14/c1-9-17(30)20(33)22(35)26(37-9)39-13-7-14(29)16-15(8-13)40-24(11-3-5-12(28)6-4-11)25(19(16)32)41-27-23(36)21(34)18(31)10(2)38-27/h3-10,17-18,20-23,26-31,33-36H,1-2H3/t9-,10-,17-,18-,20+,21+,22+,23+,26-,27-/m0/s1

>  <standard_inchi_key>  (44) 
PUPKKEQDLNREIM-QNSQPKOQSA-N

>  <name>  (44) 
Kaempferitrin

>  <iupac_name>  (44) 
5-hydroxy-2-(4-hydroxyphenyl)-3,7-bis[[(2~{S},3~{R},4~{R},5~{R},6~{S})-3,4,5-trihydroxy-6-methyl-tetrahydropyran-2-yl]oxy]chromen-4-one

>  <annotation_level>  (44) 
5

>  <total_atom_count>  (44) 
71

>  <heavy_atom_count>  (44) 
41

>  <molecular_weight>  (44) 
578.52

>  <exact_molecular_weight>  (44) 
578.16356

>  <molecular_formula>  (44) 
C27H30O14

>  <alogp>  (44) 
-0.72

>  <topological_polar_surface_area>  (44) 
228.97

>  <rotatable_bond_count>  (44) 
5

>  <hydrogen_bond_acceptors>  (44) 
14

>  <hydrogen_bond_donors>  (44) 
8

>  <hydrogen_bond_acceptors_lipinski>  (44) 
14

>  <hydrogen_bond_donors_lipinski>  (44) 
8

>  <lipinski_rule_of_five_violations>  (44) 
3

>  <aromatic_rings_count>  (44) 
3

>  <qed_drug_likeliness>  (44) 
0.19

>  <formal_charge>  (44) 
0

>  <fractioncsp3>  (44) 
0.44

>  <number_of_minimal_rings>  (44) 
5

>  <van_der_walls_volume>  (44) 
476.04

>  <contains_sugar>  (44) 
True

>  <contains_ring_sugars>  (44) 
True

>  <contains_linear_sugars>  (44) 
False

>  <murcko_framework>  (44) 
O1c2cc(OC3OCCCC3)ccc2CC(OC4OCCCC4)=C1c5ccccc5

>  <np_likeness>  (44) 
1.59

>  <chemical_class>  (44) 
Flavonoids

>  <chemical_sub_class>  (44) 
Flavonoid glycosides

>  <chemical_super_class>  (44) 
Phenylpropanoids and polyketides

>  <direct_parent_classification>  (44) 
Flavonoid-3-O-glycosides

>  <np_classifier_pathway>  (44) 
Shikimates and Phenylpropanoids

>  <np_classifier_superclass>  (44) 
Flavonoids

>  <np_classifier_class>  (44) 
Flavonols

>  <np_classifier_is_glycoside>  (44) 
True

>  <organisms>  (44) 
Ailanthus altissima|Alkanna cappadocica|Annulohypoxylon boveri|Arabidopsis thaliana|Ardisia colorata|Artemisia dentata|Atalantia racemosa|Bauhinia forficata|Berberis baluchistanica|Buddleja cordata|Buphane fischeri|Casearia grayi|Cassia marginata|Chelidonium majus|Chenopodium murale|Cleome droserifolia|Cleome viscosa|Corynandra viscosa|Crambe tatarica|Daphne oleoides|Diospyros eriantha|Dorycnium hirsutum|Dryopteris crassirhizoma|Forsythia suspensa|Forsythia viridissima|Fritillaria ningguoensis|Geranium nepalense|Graphis pinicola|Grevillea banksii|Hedyotis verticillata|Hibiscus cannabinus|Hoffmannia strigillosa|Houttuynia cordata|Humulus lupulus|Ixora coccinea|Juniperus rigida var. conferta|Justicia spicigera|Lemaireocereus griseus|Lespedeza virgata|Lotus edulis|Lygodium japonicum|Millettia erythrocalyx|Mycobacterium leprae|Negombata magnifica|Ononis vaginalis|Prorocentrum micans|Pteris semipinnata|Pterogyne nitens|Rapanea lancifolia|Raphanus raphanistrum|Salvia hispanica|Scorzonera pseudodivaricata|Sedum dendroideum|Siraitia grosvenorii|Solanum anomalum|Sonchus arvensis|Stellaria media|Syncarpia hillii|Tagetes erecta|Tephrosia purpurea|Teucrium betonicum|Tolypocladium inflatum|Vicia faba|Xenoacremonium recifei

>  <collections>  (44) 
ANPDB|AnalytiCon Discovery NPs|Australian natural products|BIOFACQUIM|CMAUP (cCollective molecular activities of useful plants)|ChEBI NPs|ChemSpider NPs|GNPS (Global Natural Products Social Molecular Networking)|Latin America dataset|NANPDB (Natural Products from Northern African Sources)|NPASS|NPAtlas|NuBBEDB|Phyto4Health|Super Natural II|TCMDB-Taiwan (Traditional Chinese Medicine database)|VietHerb|ZINC NP

>  <dois>  (44) 
10.1002/%28SICI%291099-1573%28199712%2911:8%3C564::AID-PTR162%3E3.0.CO;2-L/epdf|10.1002/(sici)1099-1573(199712)11:8<564::aid-ptr162>3.0.co;2-l|10.1002/iub.1270|10.1007/s00436-013-3600-3|10.1007/s10600-011-9990-5|10.1016/j.bmcl.2007.09.003|10.1016/j.bmcl.2010.10.058|10.1016/j.cbi.2004.07.001|10.1016/j.foodres.2018.12.046|10.1016/j.jep.2012.06.043|10.1016/j.jep.2012.11.016|10.1021/acs.jafc.8b02066|10.1021/np030513u|10.1021/np200292u|10.1055/s-2006-959513|10.1080/14786419.2017.1283497|10.1104/pp.16.00421|10.1177/1934578x0600100602|10.1177/1934578x0800300113|10.3390/molecules16043338|10.5897/JMPR10.094

>  <synonyms>  (44) 
Lespenefril|482-38-2|Lespedin|Lespenephryl|Kaempferol 3|7-dirhamnoside|lespenephril|UNII-VPV01U3R59|kaempferol-3|7-O-alpha-L-dirhamnoside|BRN 0073958|KAEMFERITRIN|VPV01U3R59|CHEBI:68883|3|7-Bis((6-deoxy-alpha-L-mannopyranosyl)oxy)-5-hydroxy-2-(4-hydroxyphenyl)-4H-1-benzopyran-4-one|CHEMBL251766|4H-1-Benzopyran-4-one| 3|7-bis((6-deoxy-alpha-L-mannopyranosyl)oxy)-5-hydroxy-2-(4-hydroxyphenyl)-|DTXSID90197458|4-18-00-03292 (Beilstein Handbook Reference)|5-hydroxy-2-(4-hydroxyphenyl)-3|7-bis(2S|3R|4R|5R|6S)-3|4|5-trihydroxy-6-methyloxan-2-yloxychromen-4-one|3|7-bis-(alpha-6-deoxymannopyranosyloxy)-5-hydroxy-2-(4-hydroxyphenyl)chromen-4-one|5-Hydroxy-2-(4-hydroxyphenyl)-3|7-bis(((2S|3R|4R|5R|6S)-3|4|5-trihydroxy-6-methyltetrahydro-2H-pyran-2-yl)oxy)-4H-chromen-4-one|Karempferitrin|3-((6-deoxy-alpha-L-mannopyranosyl)oxy)-5-hydroxy-2-(4-hydroxyphenyl)-4-oxo-4H-chromen-7-yl 6-deoxy-alpha-L-mannopyranoside|LESPEDIN WHO-DD|SCHEMBL571402|kaempferol 3-O-alpha-L-rhamnopyranosyl-7-O-alpha-L-rhamnopyranoside|MEGxp0_000567|ACon1_000073|GTPL13277|Kaempferitrin| >=97% (NMR)|DTXCID00119949|HY-N0628|BDBM50331856|s9112|AKOS032962036|CCG-270118|NCGC00168820-01|AC-34729|AS-56461|KAEMPFEROL 3|7-DIRHAMNOSIDE MI|XK161839|DB-326537|CS-0009620|C16981|Q6345965|BRD-K45884135-001-01-5|4H-1-BENZOPYRAN-4-ONE| 3|7-BIS((6-DEOXY-.ALPHA.-L-MANNOPYRANOSYL)OXY)-5-HYDROXY-2-(4-HYDROXYPHENYL)-|kaempferitin|kaempferol-3-O-_-L-rhamnopyranoside-7-O-_-L-rhamnopyranoside

>  <cas>  (44) 
482-38-2

$$$$

     RDKit          2D

 31 34  0  0  0  0  0  0  0  0999 V2000
   -2.0801   -4.7883    0.0000 O   0  0  0  0  0  0  0  0  0  0  0  0
   -1.6641   -3.3472    0.0000 C   0  0  0  0  0  0  0  0  0  0  0  0
   -2.7042   -2.2663    0.0000 C   0  0  0  0  0  0  0  0  0  0  0  0
   -2.2881   -0.8252    0.0000 C   0  0  0  0  0  0  0  0  0  0  0  0
   -3.3282    0.2557    0.0000 C   0  0  0  0  0  0  0  0  0  0  0  0
   -2.9122    1.6968    0.0000 C   0  0  0  0  0  0  0  0  0  0  0  0
   -3.9522    2.7777    0.0000 C   0  0  0  0  0  0  0  0  0  0  0  0
   -5.4083    2.4174    0.0000 C   0  0  0  0  0  0  0  0  0  0  0  0
   -6.4484    3.4983    0.0000 O   0  0  0  0  0  0  0  0  0  0  0  0
   -5.8244    0.9763    0.0000 C   0  0  0  0  0  0  0  0  0  0  0  0
   -4.7843   -0.1046    0.0000 C   0  0  0  0  0  0  0  0  0  0  0  0
   -0.8321   -0.4649    0.0000 O   0  0  0  0  0  0  0  0  0  0  0  0
    0.2080   -1.5458    0.0000 C   0  0  0  0  0  0  0  0  0  0  0  0
    1.6641   -1.1855    0.0000 C   0  0  0  0  0  0  0  0  0  0  0  0
    2.0801    0.2557    0.0000 C   0  0  0  0  0  0  0  0  0  0  0  0
    3.5362    0.6160    0.0000 O   0  0  0  0  0  0  0  0  0  0  0  0
    3.9522    2.0571    0.0000 C   0  0  0  0  0  0  0  0  0  0  0  0
    5.4083    2.4174    0.0000 C   0  0  0  0  0  0  0  0  0  0  0  0
    6.4484    1.3366    0.0000 O   0  0  0  0  0  0  0  0  0  0  0  0
    2.9122    3.1380    0.0000 C   0  0  0  0  0  0  0  0  0  0  0  0
    3.3282    4.5791    0.0000 O   0  0  0  0  0  0  0  0  0  0  0  0
    1.4561    2.7777    0.0000 C   0  0  0  0  0  0  0  0  0  0  0  0
    0.4160    3.8586    0.0000 O   0  0  0  0  0  0  0  0  0  0  0  0
    1.0401    1.3366    0.0000 C   0  0  0  0  0  0  0  0  0  0  0  0
   -0.4160    0.9763    0.0000 O   0  0  0  0  0  0  0  0  0  0  0  0
    2.7042   -2.2663    0.0000 C   0  0  0  0  0  0  0  0  0  0  0  0
    4.1603   -1.9060    0.0000 O   0  0  0  0  0  0  0  0  0  0  0  0
    2.2881   -3.7075    0.0000 C   0  0  0  0  0  0  0  0  0  0  0  0
    0.8321   -4.0678    0.0000 C   0  0  0  0  0  0  0  0  0  0  0  0
    0.4160   -5.5089    0.0000 O   0  0  0  0  0  0  0  0  0  0  0  0
   -0.2080   -2.9869    0.0000 C   0  0  0  0  0  0  0  0  0  0  0  0
  1  2  2  0
  2  3  1  0
  3  4  2  0
  4  5  1  0
  5  6  2  0
  6  7  1  0
  7  8  2  0
  8  9  1  0
  8 10  1  0
 10 11  2  0
  4 12  1  0
 12 13  1  0
 13 14  2  0
 15 14  1  1
 15 16  1  0
 16 17  1  0
 17 18  1  1
 18 19  1  0
 17 20  1  0
 20 21  1  6
 20 22  1  0
 22 23  1  1
 22 24  1  0
 24 25  1  6
 14 26  1  0
 26 27  1  0
 26 28  2  0
 28 29  1  0
 29 30  1  0
 29 31  2  0
 31  2  1  0
 11  5  1  0
 31 13  1  0
 24 15  1  0
M  END
>  <identifier>  (45) 
CNP0190943.1

>  <canonical_smiles>  (45) 
O=C1C=C(C2=CC=C(O)C=C2)OC2=C([C@@H]3O[C@H](CO)[C@@H](O)[C@H](O)[C@H]3O)C(O)=CC(O)=C12

>  <standard_inchi>  (45) 
InChI=1S/C21H20O10/c22-7-14-17(27)18(28)19(29)21(31-14)16-11(25)5-10(24)15-12(26)6-13(30-20(15)16)8-1-3-9(23)4-2-8/h1-6,14,17-19,21-25,27-29H,7H2/t14-,17-,18+,19-,21+/m1/s1

>  <standard_inchi_key>  (45) 
SGEWCQFRYRRZDC-VPRICQMDSA-N

>  <name>  (45) 
Vitexin

>  <iupac_name>  (45) 
5,7-dihydroxy-2-(4-hydroxyphenyl)-8-[(2~{S},3~{R},4~{R},5~{S},6~{R})-3,4,5-trihydroxy-6-(hydroxymethyl)tetrahydropyran-2-yl]chromen-4-one

>  <annotation_level>  (45) 
5

>  <total_atom_count>  (45) 
51

>  <heavy_atom_count>  (45) 
31

>  <molecular_weight>  (45) 
432.38

>  <exact_molecular_weight>  (45) 
432.10565

>  <molecular_formula>  (45) 
C21H20O10

>  <alogp>  (45) 
0.09

>  <topological_polar_surface_area>  (45) 
181.05

>  <rotatable_bond_count>  (45) 
3

>  <hydrogen_bond_acceptors>  (45) 
10

>  <hydrogen_bond_donors>  (45) 
7

>  <hydrogen_bond_acceptors_lipinski>  (45) 
10

>  <hydrogen_bond_donors_lipinski>  (45) 
7

>  <lipinski_rule_of_five_violations>  (45) 
1

>  <aromatic_rings_count>  (45) 
3

>  <qed_drug_likeliness>  (45) 
0.30

>  <formal_charge>  (45) 
0

>  <fractioncsp3>  (45) 
0.29

>  <number_of_minimal_rings>  (45) 
4

>  <van_der_walls_volume>  (45) 
351.83

>  <contains_sugar>  (45) 
True

>  <contains_ring_sugars>  (45) 
True

>  <contains_linear_sugars>  (45) 
False

>  <murcko_framework>  (45) 
O1C(=CCc2cccc(c12)C3OCCCC3)c4ccccc4

>  <np_likeness>  (45) 
1.98

>  <chemical_class>  (45) 
Flavonoids

>  <chemical_sub_class>  (45) 
Flavonoid glycosides

>  <chemical_super_class>  (45) 
Phenylpropanoids and polyketides

>  <direct_parent_classification>  (45) 
Flavonoid 8-C-glycosides

>  <np_classifier_pathway>  (45) 
Shikimates and Phenylpropanoids

>  <np_classifier_superclass>  (45) 
Flavonoids

>  <np_classifier_class>  (45) 
Flavones

>  <np_classifier_is_glycoside>  (45) 
False

>  <organisms>  (45) 
Abies nobilis|Abies veitchii|Abrus precatorius|Acacia pycnantha|Acrocomia sclerocarpa|Adenopeltis colliguaya|Afrocarpus falcatus|Agelas nakamurai|Agrimonia pilosa|Ainsliaea macrocephala|Ajuga australis|Alchornea floribunda|Alchornea trewioides|Alkanna hirsutissima|Aloe vulgaris|Alpinia allughas|Alternanthera bettzickiana|Amsinckia menziesii|Amsinckia tessellata|Anolis lineatopus|Aphis sambuci|Arenaria oreophila|Artemisia annua L.|Artemisia apiacea|Artemisia sibirica|Aspalathus linearis|Aspergillus arenarius|Aspergillus mutabilis|Aspergillus quadrilineatus|Aspicilia caesiocinerea|Asterogyne martiana|Aucuba chinensis|Aurelia aurita|Avrainvillea nigricans|Baccharis magellanica|Baphicacanthus cusia|Barbus labeo|Beilschmiedia volckii|Berkheya zeyheri|Beta vulgaris|Bistorta vivipara|Bituminaria bituminosa|Boehmeria nivea|Bombus hortorum|Boronia ternata|Botrydium granulatum|Brickellia vernicosa|Bryophyllum fedtschenkoi|Buddleja variabilis|Bugula dentata|Buxus hyrcana|Buxus microphylla|Buxus papillosa|Cacospongia scalaris|Calea megacephala|Calonectria cylindrospora|Camellia sinensis|Canella winterana|Capsicum tetragonum|Carica dodecaphylla|Carlina acaulis|Casearia membranacea|Caulerpa sertularioides|Cedronella canariensis|Centaurea huber-morathii|Centaurea seridis|Cephalaria ambrosioides|Ceratocystis clavigera|Cereus bridgesii|Cereus weberi|Chaetomium globosum|Chaetomium subaffine|Chrozophora obliqua|Chrysosplenium echinus|Cinnamomum kotoense|Cirsium tanakae|Citrus tangerina|Clausena lansium|Clematis recta|Clinacanthus nutans|Cneorum pulverulentum|Colchicum robustum|Coleostephus myconis|Coleus garckeanus|Commelina communis|Conospermum teretifolium|Consolida ajacis|Cordyline indivisa|Coronophora gregaria|Corydalis cornuta|Craibiodendron henryi|Crangon vulgaris|Crataegus maximowiczii|Crataegus oxyacantha|Crataegus pinnatifida|Crataegus pinnatifida var. major|Crataegus rhipidophylla|Crataegus sanguinea|Crataegus tanacetifolia|Crocus minimus|Crotalaria anagyroides|Crotalaria pallida|Crotalaria verrucosa|Croton cascarilloides|Croton megistocarpus|Croton poilanei|Croton zambezicus|Cryptolestes ferrugineus|Cucumis sativus|Cunonia macrophylla|Curculigo pilosa|Cynometra lujae|Cystoseira caespitosa|Cystoseira jabukae|Cytisus ratisbonensis|Dacrydium biforme|Dahlia pinnata|Dalbergia stipulacea|Daphne giraldii|Dasymaschalon sootepense|Decachaeta thieleana|Delphinium campylocentrum|Desmodium styracifolium|Desmodium triflorum|Dicoma anomala|Dicranopteris linearis|Dictyoloma incanescens|Dictyopteris undulata|Didemnum inarmatum|Didemnum solidum|Dinemasporium strigosum|Diospyros kaki|Disepalum plagioneurum|Drypetes roxburghii|Elaeagnus commutata|Elaeagnus pungens|Enrichment culture|Entada rheedei|Epidendrum rigidum|Eremophila serrulata|Ericameria diffusa|Eriostemon thryptomenoides|Erylus trisphaerus|Escherichia coli + Escherichia coli coculture|Eucalyptus flocktoniae|Eumorphia sericea|Euonymus sachalinensis|Eupatorium adenophorum|Eupatorium areolare|Eupatorium birmanicum|Evolvulus alsinoides|Fagopyrum esculentum|Fagopyrum tataricum|Felicia erigeroides|Felimida luteorosea|Flemingia chappar|Flindersia brayleyana|Formica fusca|Galeopsis tetrahit|Garcinia dulcis|Garcinia pseudoguttifera|Garcinia xanthochymus|Gentiana crassicaulis|Gentiana dahurica|Gentiana macrophylla|Gentiana straminea|Geranium sibiricum|Gerbera piloselloides|Gleditsia caspica|Glycine max|Goniobranchus kuniei|Gouania leptostachya|Gracilaria textorii|Grataegus pinnatifida|Grindelia nana|Guatteria melosma|Gutierrezia microcephala|Gynostemma pentaphyllum|Hakea saligna|Halobacterium salinarum|Halopitys incurvus|Haloxylon salicornicum|Haplophyllum ramosissimum|Helichrysum infaustum|Helichrysum mixtum|Heliotropium eichwaldii|Heracleum sphondylium|Herba nerviliae|Hesperocyparis goveniana|Houttuynia cordata|Humata pectinata|Humulus japonicus|Hyphaene thebaica|Hypholoma capnoides|Hyptis oblongifolia|Indian beech tree|Isodon lophanthoides var. gerardiana|Isodon oresbia|Jasminum grandiflorum|Jungermannia obovata|Justicia ciliata|Justicia debilis|Kali turgidum|Kuehneromyces mutabilis|Kummerowia striata|Kyllinga brevifolia|Lactarius deliciosus var. deterrimus|Lagerstroemia indica|Laurencia implicata|Lecanicillium muscarium|Lecanora lividocinerea|Leptothorax acervorum|Lespedeza cuneata|Lespedeza juncea|Leucanthemum maximum|Ligularia lamarum|Lippia mexicana|Lissoclinum vareau|Lobophytum chevalieri|Lophatherum gracile|Lsodon oresbia|Luculia pinceana|Lupinus paniculatus|Lycoris traubii|Lygodium flexuosum|Lyophyllum shimeji|Lysiana subfalcata|Lysimachia christinae|Macaranga peltata|Marine isolate|Marrubium vulgare|Mascarenhasia arborescens|Meconopsis napaulensis|Melaleuca uncinata|Mentha pulegiformis|Merremia umbellata|Methylobacterium rhodinum|Microcos paniculata|Millettia conraui|Monascus purpureus|Moraea sisyrinchium|Narcissus obesus|Nelumbo nucifera|Nepeta cataria|Nephroma australe|Nicotiana debneyi|Nigella sativa|Nostoc spongiaeforme|Ocotea pulchella|Ophryosporus chilca|Ormosia panamensis|Osmerus mordax|Osmundaria colensoi|Osteospermum muricatum|Paeonia lactiflora|Paeonia rockii|Palafoxia rosea|Panax ginseng|Parablechnum minus|Paraburkholderia caryophylli|Parkinsonia aculeata|Pedicularis condensata|Pelvetia canaliculata|Pentagonia gigantifolia|Peperomia vulcanica|Perityle vaseyi|Perknaster fuscus|Persea indica|Persea kusanoi|Persicaria orientalis|Pertusaria wulfenii|Phaeolus schweinitzii|Phegopteris bukoensis|Phoebe formosana|Phoma betae|Phoradendron serotinum|Phorbas amaranthus|Phyllanthus discoideus|Phyllostachys nigra|Physalis edulis|Picris radicata|Pinus mugo|Pinus picea|Piper aequale|Pisum sativum|Pityrogramma ebenea|Platycarya strobilacea|Polyphaga sinensis|Porella swartziana|Portulaca oleracea|Premna tomentosa|Primnoa reseda|Primula hirsuta|Pterogorgia anceps|Pyrrosia lingua|Pyrrosia petiolosa|Pyrrosia sheareri|Pyrrosia tricuspis|Quercus mongolica|Rheum webbianum|Rhizopus stolonifer|Rhododendron ferrugineum|Rhynchosia minima|Rodgersia podophylla|Rosa davurica|Rosa transmorrisonensis|Rumex acetosa|Saccharum spontaneum|Sagittaria sagittifolia|Salacia chinensis|Salacia elliptica|Salvia coulteri|Salvia digitaloides|Salvia nubicola|Sargassum spinuligerum|Satureja cuneifolia|Saussurea amara|Scapania nemorea|Securinega melanthesoides|Senecio flavus|Senecio isatideus|Senecio scandens|Shigella flexneri|Sia ferox|Sida cordifolia|Sideritis euboea|Siegesbeckia pubescens|Sigesbeckia glabrescens|Sisyrinchium californicum|Smenospongia echina|Smilax bracteata|Solanum americanum|Solanum sisymbriifolium|Solenopsis invicta|Sophora exigua|Sophora tonkinensis|Sorbus tianschanica|Sphaeria maculans|Spirodela polyrhiza|Spirodela polyrrhiza|Spodoptera littoralis|Sporobolus cynosuroides|Stephania elegans|Stichopus hermanni|Streptomyces chattanoogensis|Streptomyces clavifer|Streptomyces fradiae|Streptomyces misawanensis|Streptomyces mobaraensis|Strychnos camptoneura|Strychnos staudtii|Suberea mollis|Suberites carnosus|Swertia swertopsis|Synotis alata|Tamarindus indica|Tanacetum albipannosum|Tanacetum serotinum|Taxus brevifolia|Thalictrum cultratum|Thelephora palmata|Theobroma cacao|Thermopsis alpina|Thymbra spicata|Tinus mamillata|Trichia floriformis|Trichoderma koningi|Trichoderma polysporum|Trigonella foenum|Trigonella foenum-graecum|Trollius chinensis|Trollius macropetalus|Tsuga chinensis|Tsuga mertensiana|Turraeanthus mannii|Turricula parryi|Uncaria laevigata|Usnea undulata|Utricularia australis|Vallaris solanacea|Vellozia nivea|Verbena officinalis|Vigna angularis|Vigna mungo|Vigna radiata|Vigna umbellata|Vigna umbeuata|Virgilia divaricata|Viscum coloratum|Vitex lucens|Vitex negundo|Vitex rotundifolia|Vitex trifolia|Xanthium pungens|Zanthoxylum ailanthoides|Zanthoxylum piperitum|Ziziphus jujuba|microtea debilis

>  <collections>  (45) 
ANPDB|AfroDB|Australian natural products|BIOFACQUIM|CMAUP (cCollective molecular activities of useful plants)|ChEBI NPs|ConMedNP|EMNPD|Exposome-explorer|FooDB|GNPS (Global Natural Products Social Molecular Networking)|HIT (Herbal Ingredients Targets)|Latin America dataset|NANPDB (Natural Products from Northern African Sources)|NPASS|Phyto4Health|SANCDB|Super Natural II|TCMDB-Taiwan (Traditional Chinese Medicine database)|VietHerb|ZINC NP

>  <dois>  (45) 
10.1016/S0031-9422(00)85201-2|10.1016/j.bioorg.2021.104926|10.1016/j.bmc.2012.12.040|10.1016/j.bmc.2017.12.011|10.1016/j.jep.2012.06.018|10.1021/acs.jafc.9b00846|10.1021/np970025k|10.1039/c7md00388a|10.1071/ch9640428|10.13005/ojc/300334|10.3390/foods9060770

>  <synonyms>  (45) 
3681-93-4|Apigenin 8-C-glucoside|8-beta-D-Glucopyranosyl-apigenin|EINECS 222-963-8|UNII-9VP70K75OK|ORIENTOSIDE|VITEXINA|VITEXINE|9VP70K75OK|CHEBI:16954|Flavone| 8-D-glucosyl-4'|5|7-trihydroxy-|4H-1-Benzopyran-4-one| 5|7-dihydroxy-8-beta-D-glucopyranosyl-2-(4-hydroxyphenyl)-|DTXSID90190287|MFCD00017456|8C-hexosyl apigenin|VITEXIN (USP-RS)|VITEXIN USP-RS|4H-1-Benzopyran-4-one| 8-beta-D-glucopyranosyl-5|7-dihydroxy-2-(4-hydroxyphenyl)-|5|7-dihydroxy-2-(4-hydroxyphenyl)-8-((2S|3R|4R|5S|6R)-3|4|5-trihydroxy-6-(hydroxymethyl)tetrahydro-2H-pyran-2-yl)-4H-chromen-4-one|Vitxein|5|7-dihydroxy-2-(4-hydroxyphenyl)-8-(2S|3R|4R|5S|6R)-3|4|5-trihydroxy-6-(hydroxymethyl)oxan-2-ylchromen-4-one|8-glycosylapigenin|(1S)-1|5-anhydro-1-5|7-dihydroxy-2-(4-hydroxyphenyl)-4-oxo-4H-chromen-8-yl-D-glucitol|8-beta-D-Glucopyranosyl-5|7-dihydroxy-2-(4-hydroxyphenyl)-4H-1-benzopyran-4-one|Vitexin|(S)|VITEXIN INCI|VITEXIN WHO-DD|Vitexin| analytical standard|SCHEMBL25277|CHEMBL487417|DTXCID00112778|SGEWCQFRYRRZDC-VPRICQMDSA-N|Apigenin 8-C-.beta.-D-glucoside|HY-N0013|BDBM50362886|HB4123|s9192|AKOS025311479|AC-6086|CCG-208516|NCGC00163642-01|Vitexin 100 microg\/mL in Acetone:Water|AS-55909|(hydroxymethyl)tetrahydro-2H-pyran-2-yl)-|1ST158047|CS-0007090|NS00018314|APIGENIN-8-C-.BETA.-D-GLUCOPYRANOSIDE|C01460|Q259075|Vitexin| primary pharmaceutical reference standard|Q-100437|8-((2S|3R|4R|5S|6R)-3|4|5-trihydroxy-6-|5|7|4'-Trihydroxyflavone 8-C-.beta.-D-glucopyranoside|VITEXIN (CONSTITUENT OF HAWTHORN LEAF WITH FLOWER)|FLAVONE| 8-beta-D-GLUCOPYRANOSYL-4'|5|7-TRIHYDROXY-|Vitexin| United States Pharmacopeia (USP) Reference Standard|Vitexin|Vitexin 6''-O-malonyl 2''-O-xyloside|8-C-beta-D-glucopyranosyl-5|7|4'-trihydroxyflavone|apigenin 7-O-beta-glucopyranoside|vitexin

>  <cas>  (45) 
3681-93-4

$$$$

     RDKit          2D

 33 36  0  0  0  0  0  0  0  0999 V2000
    7.2151   -3.6023    0.0000 C   0  0  0  0  0  0  0  0  0  0  0  0
    6.8619   -2.1445    0.0000 C   0  0  0  0  0  0  0  0  0  0  0  0
    5.4227   -1.7215    0.0000 C   0  0  0  0  0  0  0  0  0  0  0  0
    5.0695   -0.2637    0.0000 C   0  0  0  0  0  0  0  0  0  0  0  0
    3.6303    0.1593    0.0000 C   0  0  0  0  0  0  0  0  0  0  0  0
    3.2771    1.6171    0.0000 C   0  0  0  0  0  0  0  0  0  0  0  0
    4.3630    2.6519    0.0000 C   0  0  0  0  0  0  0  0  0  0  0  0
    1.8380    2.0400    0.0000 C   0  0  0  0  0  0  0  0  0  0  0  0
    1.3343    3.4529    0.0000 C   0  0  0  0  0  0  0  0  0  0  0  0
   -0.1651    3.4105    0.0000 C   0  0  0  0  0  0  0  0  0  0  0  0
   -0.5881    1.9714    0.0000 C   0  0  0  0  0  0  0  0  0  0  0  0
   -1.7308    2.9431    0.0000 C   0  0  0  0  0  0  0  0  0  0  0  0
   -1.9406    1.3227    0.0000 C   0  0  0  0  0  0  0  0  0  0  0  0
   -3.1786    2.1697    0.0000 C   0  0  0  0  0  0  0  0  0  0  0  0
   -4.5311    1.5211    0.0000 C   0  0  0  0  0  0  0  0  0  0  0  0
   -4.6456    0.0255    0.0000 C   0  0  0  0  0  0  0  0  0  0  0  0
   -5.9982   -0.6232    0.0000 C   0  0  0  0  0  0  0  0  0  0  0  0
   -7.4909   -0.7701    0.0000 C   0  0  0  0  0  0  0  0  0  0  0  0
   -6.4021    0.8214    0.0000 C   0  0  0  0  0  0  0  0  0  0  0  0
   -6.1127   -2.1188    0.0000 C   0  0  0  0  0  0  0  0  0  0  0  0
   -7.4652   -2.7674    0.0000 O   0  0  0  0  0  0  0  0  0  0  0  0
   -4.8747   -2.9658    0.0000 C   0  0  0  0  0  0  0  0  0  0  0  0
   -3.5222   -2.3171    0.0000 C   0  0  0  0  0  0  0  0  0  0  0  0
   -3.4077   -0.8215    0.0000 C   0  0  0  0  0  0  0  0  0  0  0  0
   -2.1697   -1.6685    0.0000 C   0  0  0  0  0  0  0  0  0  0  0  0
   -2.0552   -0.1729    0.0000 C   0  0  0  0  0  0  0  0  0  0  0  0
   -0.8172   -1.0199    0.0000 C   0  0  0  0  0  0  0  0  0  0  0  0
    0.5353   -0.3712    0.0000 C   0  0  0  0  0  0  0  0  0  0  0  0
    0.6499    1.1244    0.0000 C   0  0  0  0  0  0  0  0  0  0  0  0
    1.9696    0.4114    0.0000 C   0  0  0  0  0  0  0  0  0  0  0  0
    7.9477   -1.1097    0.0000 C   0  0  0  0  0  0  0  0  0  0  0  0
    7.5945    0.3481    0.0000 O   0  0  0  0  0  0  0  0  0  0  0  0
    9.3869   -1.5326    0.0000 O   0  0  0  0  0  0  0  0  0  0  0  0
  1  2  1  0
  2  3  2  0
  3  4  1  0
  4  5  1  0
  5  6  1  0
  6  7  1  6
  6  8  1  0
  8  9  1  1
  9 10  1  0
 10 11  1  0
 11 12  1  6
 11 13  1  0
 13 14  2  0
 14 15  1  0
 15 16  1  0
 16 17  1  0
 17 18  1  0
 17 19  1  0
 17 20  1  0
 20 21  2  0
 20 22  1  0
 22 23  1  0
 23 24  1  0
 24 25  1  6
 24 26  1  0
 26 27  1  6
 27 28  1  0
 28 29  1  0
 29 30  1  1
  2 31  1  0
 31 32  2  0
 31 33  1  0
 29  8  1  0
 29 11  1  0
 26 13  1  0
 24 16  1  0
M  END
>  <identifier>  (46) 
CNP0237904.1

>  <canonical_smiles>  (46) 
C/C(=C/CC[C@@H](C)[C@@H]1CC[C@]2(C)C3=CCC4C(C)(C)C(=O)CC[C@]4(C)[C@H]3CC[C@@]12C)C(=O)O

>  <standard_inchi>  (46) 
InChI=1S/C30H46O3/c1-19(9-8-10-20(2)26(32)33)21-13-17-30(7)23-11-12-24-27(3,4)25(31)15-16-28(24,5)22(23)14-18-29(21,30)6/h10-11,19,21-22,24H,8-9,12-18H2,1-7H3,(H,32,33)/b20-10-/t19-,21+,22+,24?,28-,29+,30-/m1/s1

>  <standard_inchi_key>  (46) 
VOYZLKWKVLYJHD-IDELEHTOSA-N

>  <name>  (46) 
nan

>  <iupac_name>  (46) 
(~{Z},6~{R})-2-methyl-6-[(9~{R},10~{R},13~{S},14~{S},17~{S})-4,4,10,13,14-pentamethyl-3-oxo-1,2,5,6,9,11,12,15,16,17-decahydrocyclopenta[a]phenanthren-17-yl]hept-2-enoic acid

>  <annotation_level>  (46) 
5

>  <total_atom_count>  (46) 
79

>  <heavy_atom_count>  (46) 
33

>  <molecular_weight>  (46) 
454.7

>  <exact_molecular_weight>  (46) 
454.3447

>  <molecular_formula>  (46) 
C30H46O3

>  <alogp>  (46) 
7.61

>  <topological_polar_surface_area>  (46) 
54.37

>  <rotatable_bond_count>  (46) 
5

>  <hydrogen_bond_acceptors>  (46) 
2

>  <hydrogen_bond_donors>  (46) 
1

>  <hydrogen_bond_acceptors_lipinski>  (46) 
2

>  <hydrogen_bond_donors_lipinski>  (46) 
1

>  <lipinski_rule_of_five_violations>  (46) 
1

>  <aromatic_rings_count>  (46) 
0

>  <qed_drug_likeliness>  (46) 
0.34

>  <formal_charge>  (46) 
0

>  <fractioncsp3>  (46) 
0.80

>  <number_of_minimal_rings>  (46) 
4

>  <van_der_walls_volume>  (46) 
460.27

>  <contains_sugar>  (46) 
False

>  <contains_ring_sugars>  (46) 
False

>  <contains_linear_sugars>  (46) 
False

>  <murcko_framework>  (46) 
C1=C2C3CCCC3CCC2C4CCCCC4C1

>  <np_likeness>  (46) 
3.55

>  <chemical_class>  (46) 
Steroids and steroid derivatives

>  <chemical_sub_class>  (46) 
Oxosteroids

>  <chemical_super_class>  (46) 
Lipids and lipid-like molecules

>  <direct_parent_classification>  (46) 
Oxosteroids

>  <np_classifier_pathway>  (46) 
Terpenoids

>  <np_classifier_superclass>  (46) 
Triterpenoids

>  <np_classifier_class>  (46) 
Lanostane, Tirucallane and Euphane triterpenoids

>  <np_classifier_is_glycoside>  (46) 
False

>  <organisms>  (46) 
Amphipterygium adstringens

>  <collections>  (46) 
BIOFACQUIM|Latin America dataset

>  <dois>  (46) 
10.1016/j.jep.2010.11.057

>  <synonyms>  (46) 
Masticadienonic acid

>  <cas>  (46) 
nan

$$$$

     RDKit          2D

 33 36  0  0  0  0  0  0  0  0999 V2000
    7.2151   -3.6023    0.0000 C   0  0  0  0  0  0  0  0  0  0  0  0
    6.8619   -2.1445    0.0000 C   0  0  0  0  0  0  0  0  0  0  0  0
    5.4227   -1.7215    0.0000 C   0  0  0  0  0  0  0  0  0  0  0  0
    5.0695   -0.2637    0.0000 C   0  0  0  0  0  0  0  0  0  0  0  0
    3.6303    0.1593    0.0000 C   0  0  0  0  0  0  0  0  0  0  0  0
    3.2771    1.6171    0.0000 C   0  0  0  0  0  0  0  0  0  0  0  0
    4.3630    2.6519    0.0000 C   0  0  0  0  0  0  0  0  0  0  0  0
    1.8380    2.0400    0.0000 C   0  0  0  0  0  0  0  0  0  0  0  0
    1.3343    3.4529    0.0000 C   0  0  0  0  0  0  0  0  0  0  0  0
   -0.1651    3.4105    0.0000 C   0  0  0  0  0  0  0  0  0  0  0  0
   -0.5881    1.9714    0.0000 C   0  0  0  0  0  0  0  0  0  0  0  0
   -1.7308    2.9431    0.0000 C   0  0  0  0  0  0  0  0  0  0  0  0
   -1.9406    1.3227    0.0000 C   0  0  0  0  0  0  0  0  0  0  0  0
   -3.1786    2.1697    0.0000 C   0  0  0  0  0  0  0  0  0  0  0  0
   -4.5311    1.5211    0.0000 C   0  0  0  0  0  0  0  0  0  0  0  0
   -4.6456    0.0255    0.0000 C   0  0  0  0  0  0  0  0  0  0  0  0
   -5.9982   -0.6232    0.0000 C   0  0  0  0  0  0  0  0  0  0  0  0
   -7.4909   -0.7701    0.0000 C   0  0  0  0  0  0  0  0  0  0  0  0
   -6.4021    0.8214    0.0000 C   0  0  0  0  0  0  0  0  0  0  0  0
   -6.1127   -2.1188    0.0000 C   0  0  0  0  0  0  0  0  0  0  0  0
   -7.4652   -2.7674    0.0000 O   0  0  0  0  0  0  0  0  0  0  0  0
   -4.8747   -2.9658    0.0000 C   0  0  0  0  0  0  0  0  0  0  0  0
   -3.5222   -2.3171    0.0000 C   0  0  0  0  0  0  0  0  0  0  0  0
   -3.4077   -0.8215    0.0000 C   0  0  0  0  0  0  0  0  0  0  0  0
   -2.1697   -1.6685    0.0000 C   0  0  0  0  0  0  0  0  0  0  0  0
   -2.0552   -0.1729    0.0000 C   0  0  0  0  0  0  0  0  0  0  0  0
   -0.8172   -1.0199    0.0000 C   0  0  0  0  0  0  0  0  0  0  0  0
    0.5353   -0.3712    0.0000 C   0  0  0  0  0  0  0  0  0  0  0  0
    0.6499    1.1244    0.0000 C   0  0  0  0  0  0  0  0  0  0  0  0
    1.9696    0.4114    0.0000 C   0  0  0  0  0  0  0  0  0  0  0  0
    7.9477   -1.1097    0.0000 C   0  0  0  0  0  0  0  0  0  0  0  0
    7.5945    0.3481    0.0000 O   0  0  0  0  0  0  0  0  0  0  0  0
    9.3869   -1.5326    0.0000 O   0  0  0  0  0  0  0  0  0  0  0  0
  1  2  1  0
  2  3  2  0
  3  4  1  0
  4  5  1  0
  5  6  1  0
  6  7  1  6
  6  8  1  0
  8  9  1  1
  9 10  1  0
 10 11  1  0
 11 12  1  6
 11 13  1  0
 13 14  2  0
 14 15  1  0
 15 16  1  0
 16 17  1  0
 17 18  1  0
 17 19  1  0
 17 20  1  0
 20 21  1  1
 20 22  1  0
 22 23  1  0
 23 24  1  0
 24 25  1  6
 24 26  1  0
 26 27  1  6
 27 28  1  0
 28 29  1  0
 29 30  1  1
  2 31  1  0
 31 32  2  0
 31 33  1  0
 29  8  1  0
 29 11  1  0
 26 13  1  0
 24 16  1  0
M  END
>  <identifier>  (47) 
CNP0235450.1

>  <canonical_smiles>  (47) 
C/C(=C/CC[C@@H](C)[C@@H]1CC[C@]2(C)C3=CCC4C(C)(C)[C@H](O)CC[C@]4(C)[C@H]3CC[C@@]12C)C(=O)O

>  <standard_inchi>  (47) 
InChI=1S/C30H48O3/c1-19(9-8-10-20(2)26(32)33)21-13-17-30(7)23-11-12-24-27(3,4)25(31)15-16-28(24,5)22(23)14-18-29(21,30)6/h10-11,19,21-22,24-25,31H,8-9,12-18H2,1-7H3,(H,32,33)/b20-10-/t19-,21+,22+,24?,25-,28-,29+,30-/m1/s1

>  <standard_inchi_key>  (47) 
UILQHUKSFUOOLH-XGRQLWIPSA-N

>  <name>  (47) 
nan

>  <iupac_name>  (47) 
(~{Z},6~{R})-6-[(3~{R},9~{R},10~{R},13~{S},14~{S},17~{S})-3-hydroxy-4,4,10,13,14-pentamethyl-2,3,5,6,9,11,12,15,16,17-decahydro-1~{H}-cyclopenta[a]phenanthren-17-yl]-2-methyl-hept-2-enoic acid

>  <annotation_level>  (47) 
5

>  <total_atom_count>  (47) 
81

>  <heavy_atom_count>  (47) 
33

>  <molecular_weight>  (47) 
456.71

>  <exact_molecular_weight>  (47) 
456.36035

>  <molecular_formula>  (47) 
C30H48O3

>  <alogp>  (47) 
7.40

>  <topological_polar_surface_area>  (47) 
57.53

>  <rotatable_bond_count>  (47) 
5

>  <hydrogen_bond_acceptors>  (47) 
2

>  <hydrogen_bond_donors>  (47) 
2

>  <hydrogen_bond_acceptors_lipinski>  (47) 
2

>  <hydrogen_bond_donors_lipinski>  (47) 
2

>  <lipinski_rule_of_five_violations>  (47) 
1

>  <aromatic_rings_count>  (47) 
0

>  <qed_drug_likeliness>  (47) 
0.33

>  <formal_charge>  (47) 
0

>  <fractioncsp3>  (47) 
0.83

>  <number_of_minimal_rings>  (47) 
4

>  <van_der_walls_volume>  (47) 
464.23

>  <contains_sugar>  (47) 
False

>  <contains_ring_sugars>  (47) 
False

>  <contains_linear_sugars>  (47) 
False

>  <murcko_framework>  (47) 
C1=C2C3CCCC3CCC2C4CCCCC4C1

>  <np_likeness>  (47) 
3.52

>  <chemical_class>  (47) 
Steroids and steroid derivatives

>  <chemical_sub_class>  (47) 
Hydroxysteroids

>  <chemical_super_class>  (47) 
Lipids and lipid-like molecules

>  <direct_parent_classification>  (47) 
Hydroxysteroids

>  <np_classifier_pathway>  (47) 
Terpenoids

>  <np_classifier_superclass>  (47) 
Triterpenoids

>  <np_classifier_class>  (47) 
Lanostane, Tirucallane and Euphane triterpenoids

>  <np_classifier_is_glycoside>  (47) 
False

>  <organisms>  (47) 
Amphipterygium adstringens

>  <collections>  (47) 
BIOFACQUIM|Latin America dataset

>  <dois>  (47) 
10.1016/j.jep.2010.11.057

>  <synonyms>  (47) 
3a-hydroxymasticadienolic acid

>  <cas>  (47) 
nan

$$$$

     RDKit          2D

 31 35  0  0  0  0  0  0  0  0999 V2000
   -5.4033   -2.8103    0.0000 C   0  0  0  0  0  0  0  0  0  0  0  0
   -5.5437   -1.3169    0.0000 C   0  0  0  0  0  0  0  0  0  0  0  0
   -6.9900   -1.7145    0.0000 C   0  0  0  0  0  0  0  0  0  0  0  0
   -6.1864    0.0384    0.0000 C   0  0  0  0  0  0  0  0  0  0  0  0
   -5.3340    1.2727    0.0000 C   0  0  0  0  0  0  0  0  0  0  0  0
   -3.8389    1.1516    0.0000 C   0  0  0  0  0  0  0  0  0  0  0  0
   -4.4817    2.5070    0.0000 C   0  0  0  0  0  0  0  0  0  0  0  0
   -2.9866    2.3859    0.0000 C   0  0  0  0  0  0  0  0  0  0  0  0
   -1.4914    2.2649    0.0000 C   0  0  0  0  0  0  0  0  0  0  0  0
   -0.8487    0.9095    0.0000 C   0  0  0  0  0  0  0  0  0  0  0  0
   -0.2060   -0.4458    0.0000 C   0  0  0  0  0  0  0  0  0  0  0  0
   -1.7011   -0.3247    0.0000 C   0  0  0  0  0  0  0  0  0  0  0  0
   -1.0584   -1.6801    0.0000 C   0  0  0  0  0  0  0  0  0  0  0  0
    0.4367   -1.8011    0.0000 C   0  0  0  0  0  0  0  0  0  0  0  0
    1.2891   -0.5668    0.0000 C   0  0  0  0  0  0  0  0  0  0  0  0
    2.7842   -0.6879    0.0000 C   0  0  0  0  0  0  0  0  0  0  0  0
    1.9318   -1.9222    0.0000 C   0  0  0  0  0  0  0  0  0  0  0  0
    3.4269   -2.0432    0.0000 C   0  0  0  0  0  0  0  0  0  0  0  0
    4.9220   -2.1642    0.0000 C   0  0  0  0  0  0  0  0  0  0  0  0
    5.7744   -0.9300    0.0000 C   0  0  0  0  0  0  0  0  0  0  0  0
    7.2695   -1.0510    0.0000 O   0  0  0  0  0  0  0  0  0  0  0  0
    5.1317    0.4254    0.0000 C   0  0  0  0  0  0  0  0  0  0  0  0
    4.9913    1.9188    0.0000 C   0  0  0  0  0  0  0  0  0  0  0  0
    6.5780    0.8230    0.0000 C   0  0  0  0  0  0  0  0  0  0  0  0
    3.6366    0.5464    0.0000 C   0  0  0  0  0  0  0  0  0  0  0  0
    2.9939    1.9017    0.0000 C   0  0  0  0  0  0  0  0  0  0  0  0
    1.4988    2.0228    0.0000 C   0  0  0  0  0  0  0  0  0  0  0  0
    0.6464    0.7885    0.0000 C   0  0  0  0  0  0  0  0  0  0  0  0
    0.0037    2.1438    0.0000 C   0  0  0  0  0  0  0  0  0  0  0  0
   -3.1962   -0.2037    0.0000 C   0  0  0  0  0  0  0  0  0  0  0  0
   -4.0486   -1.4380    0.0000 C   0  0  0  0  0  0  0  0  0  0  0  0
  1  2  1  0
  2  3  1  0
  2  4  1  0
  4  5  1  0
  5  6  1  0
  6  7  1  1
  6  8  1  0
  8  9  1  0
  9 10  1  0
 10 11  1  6
 10 12  1  0
 12 13  2  0
 13 14  1  0
 15 14  1  1
 15 16  1  0
 16 17  1  1
 16 18  1  0
 18 19  1  0
 19 20  1  0
 20 21  1  1
 20 22  1  0
 22 23  1  0
 22 24  1  0
 22 25  1  0
 25 26  1  1
 26 27  1  0
 27 28  1  0
 28 29  1  1
 12 30  1  0
 30 31  1  6
 31  2  1  0
 30  6  1  0
 28 10  1  0
 28 15  1  0
 25 16  1  0
M  END
>  <identifier>  (48) 
CNP0362107.1

>  <canonical_smiles>  (48) 
CC1(C)CC[C@]2(C)CC[C@]3(C)C(=CC[C@@H]4[C@@]5(C)CC[C@H](O)C(C)(C)[C@@H]5CC[C@]43C)[C@@H]2C1

>  <standard_inchi>  (48) 
InChI=1S/C30H50O/c1-25(2)15-16-27(5)17-18-29(7)20(21(27)19-25)9-10-23-28(6)13-12-24(31)26(3,4)22(28)11-14-30(23,29)8/h9,21-24,31H,10-19H2,1-8H3/t21-,22-,23+,24-,27+,28-,29+,30+/m0/s1

>  <standard_inchi_key>  (48) 
JFSHUTJDVKUMTJ-QHPUVITPSA-N

>  <name>  (48) 
beta-Amyrin

>  <iupac_name>  (48) 
(3~{S},4~{a}~{R},6~{a}~{R},6~{b}~{S},8~{a}~{R},12~{a}~{R},14~{a}~{R},14~{b}~{R})-4,4,6~{a},6~{b},8~{a},11,11,14~{b}-octamethyl-1,2,3,4~{a},5,6,7,8,9,10,12,12~{a},14,14~{a}-tetradecahydropicen-3-ol

>  <annotation_level>  (48) 
5

>  <total_atom_count>  (48) 
81

>  <heavy_atom_count>  (48) 
31

>  <molecular_weight>  (48) 
426.73

>  <exact_molecular_weight>  (48) 
426.38617

>  <molecular_formula>  (48) 
C30H50O

>  <alogp>  (48) 
8.17

>  <topological_polar_surface_area>  (48) 
20.23

>  <rotatable_bond_count>  (48) 
0

>  <hydrogen_bond_acceptors>  (48) 
1

>  <hydrogen_bond_donors>  (48) 
1

>  <hydrogen_bond_acceptors_lipinski>  (48) 
1

>  <hydrogen_bond_donors_lipinski>  (48) 
1

>  <lipinski_rule_of_five_violations>  (48) 
1

>  <aromatic_rings_count>  (48) 
0

>  <qed_drug_likeliness>  (48) 
0.39

>  <formal_charge>  (48) 
0

>  <fractioncsp3>  (48) 
0.93

>  <number_of_minimal_rings>  (48) 
5

>  <van_der_walls_volume>  (48) 
445.05

>  <contains_sugar>  (48) 
False

>  <contains_ring_sugars>  (48) 
False

>  <contains_linear_sugars>  (48) 
False

>  <murcko_framework>  (48) 
C1=C2C3CCCCC3CCC2C4CCC5CCCCC5C4C1

>  <np_likeness>  (48) 
3.29

>  <chemical_class>  (48) 
Prenol lipids

>  <chemical_sub_class>  (48) 
Triterpenoids

>  <chemical_super_class>  (48) 
Lipids and lipid-like molecules

>  <direct_parent_classification>  (48) 
Oleanane triterpenoids

>  <np_classifier_pathway>  (48) 
Terpenoids

>  <np_classifier_superclass>  (48) 
Triterpenoids

>  <np_classifier_class>  (48) 
Oleanane triterpenoids

>  <np_classifier_is_glycoside>  (48) 
False

>  <organisms>  (48) 
Aaptos aaptos|Abrus precatorius|Acacia cambagei|Acacia pruinosa|Acacia pulchella|Acacia sparsiflora|Achillea biebersteinii|Achyranthes bidentata|Aconitum nevadense|Acrisione denticulata|Acronychia laurifolia|Adenopeltis colliguaya|Adiantum caudatum|Aegilops geniculata|Aeonium cuneatum|Aesculus parviflora|Agave deserti|Agave shawii|Ageratina glabrata|Ageratina riparia|Aglaia pyramidata|Ajuga reptans|Alaria crispa|Aleuroglyphus ovatus|Allium neapolitanum|Alnus japonica|Alseodaphne corneri|Alstonia boonei|Alstonia congensis|Ambrosia canescens|Ambrosia grayi|Ampelopsis brevipedunculata|Anatheca montagnei|Ania latifolia|Annona impressivenia|Anthopleura elegantissima|Anthopleura xanthogrammica|Apis mellifera|Archidendron ellipticum|Ardisia solanacea|Arenaria juncea|Aristolochia tagala|Arnica foliosa|Arnica viscosa|Artemisia dracunculus var. glauca|Arum italicum|Asclepias subulata|Asclepias syriaca L.|Asparagus thunbergianus|Aspergillus arenarius|Aspergillus nidulans|Aspergillus quadrilineatus|Aspergillus unguis|Asphodelus albus|Aster alpinus|Asterias forbesi|Astragalus pamirensis|Astrantia major|Athanasia dregeana|Atropanthe sinensis|Aulacocephalus temmincki|Baccharis dracunculifolia|Baccharis solieri|Bacillus thuringiensis|Baeomyces roseus|Beaumontia brevituba|Berberis crataegina|Berberis orthobotrys|Bersama yangambiensis|Bischofia javanica|Bitis arietans|Bituminaria bituminosa|Blumea eriantha|Bombus hortorum|Briareum violacea|Bryum rutilans|Bulbinella floribunda|Burkholderia pyrrocinia|Byssothecium obiones|Cacalia delphiniifolia|Calceolaria thyrsiflora|Calea clausseniana|Callicarpa arborea|Calodendrum capense|Calophyllum thwaitesii|Calvatia craniformis|Calycotome villosa|Calyx podatypa|Camelina sativa|Camellia crapnelliana|Camellia reticulata|Camellia sasanqua|Campsis grandiflora|Canna x generalis|Capsicum chinense|Carpinus cordata|Caryocar villosum|Cassia javanica subsp. nodosa|Castanopsis sclerophylla|Casuarina equisetifolia|Celastrus monospermus|Centaurea hololeuca|Centaurea seridis|Ceratocystis clavigera|Cereus weberi|Ceriops decandra|Cetraria pinastri|Chalciporus piperatus|Chara globularis|Chisocheton siamensis|Chiton tuberculatus|Chondropetalum paniculatum|Chromodoris willani|Chrozophora obliqua|Chrysocoma tenuifolia|Cipadessa fruticosa|Cirsium japonicum|Cladonia amaurocraea|Cladonia impexa|Cladosporium cucumerinum|Cneorum pulverulentum|Codium dwarkense|Coffea bengalensis|Coleus coerulescens|Coleus garckeanus|Colladonia triquetra|Colletotrichum dematium|Comamonas testosteroni|Conium maculatum|Conocephalum japonicum|Consolida ajacis|Convallaria keiskei|Convolvulus scammonia|Coptis trifolia subsp. groenlandica|Cordylanthus kingii|Corticium caeruleum|Corydalis claviculata|Crataegus pontica|Cratoxylum maingayi|Crinipellis scabella|Croton caudatus|Croton cumingii|Cucurbita moschata|Cuphea infundibulum|Cyathus helenae|Cycas armstrongii|Cycas beddomei|Cycas revoluta|Cylicodaphne sebifera|Cymbastela coralliophila|Cynanchum formosanum|Cyrtocarpa procera|Cystophora scalaris|Dactylosporangium aurantiacum|Dalbergia ecastaphyllum|Dalbergia stipulacea|Dasystenella acanthina|Derris brevipes|Dimelaena oreina|Dinemasporium strigosum|Dioclea grandiflora|Diosma recurva|Diospyros lotus|Diospyros maritima|Diplazium esculentum|Diploschistes cretaceus|Dirca occidentalis|Disynaphia halimifolia|Dolichospermum viguieri|Doodia picta|Dryopteris crenata|Drypetes littoralis|Durio zibethinus|Dysidea villosa|Dysosma pleiantha|Dytiscus marginalis|Echinocystis lobata|Echinops niveus|Edgeworthia gardneri|Elaeagnus angustifolia|Elaeagnus commutata|Elaeocarpus fuscoides|Ephedra aphylla|Eragrostis viscosa|Eria tomentosa|Erysimum cheiranthoides|Erythrina caffra|Erythrina variegate|Eucalyptus exserta|Eucalyptus flocktoniae|Eucalyptus froggattii|Eucalyptus regnans|Eunicella cavolinii|Euonymus laxiflorus|Euphorbia esula|Euphorbia esula l. var. cyparissoides boiss.|Euphorbia formosana|Euphorbia hirta|Euphorbia iberica|Eutreptia viridis|Eutrochium purpureum|Evasterias troschelii|Evodiopanax innovans|Falcaria vulgaris|Felicia amelloides|Ficus carica|Firmiana simplex|Fleischmannia pratensis|Flindersia brayleyana|Forsteronia refracta|Forsythia suspensa|Fridericia chica|Fusarium dimerum|Ganoderma lucidum|Garcinia lateriflora|Gentiana lutea|Gerbera piloselloides|Girgensohnia diptera|Glochidion philippicum|Gloiopeltis furcata|Gochnatia hypoleuca|Grewia mollis|Grindelia perennis|Gymnocarpium robertianum|Haemanthus toxicarius|Halidrys siliquosa|Haloxylon salicornicum|Haminoea orbignyana|Hannoa undulata|Hedysarum multijugum|Helenium quadridentatum|Heliotropium floridum|Heracleum sphondylium|Hesperocyparis lusitanica|Heterotheca grandiflora|Himalaiella deltoidea|Hippophae rhamnoides|Hopea jucunda|Hortonia floribunda|Hosta sieboldiana|Hovenia acerba|Hultholia mimosoides|Hypericum sarothra|Hyrtios eubamma|Ilex aquifolium L.|Ilex brevicuspis|Ilex iatifolla|Ilex verticillata (L.) A. Gray|Indigofera carlesi|Inga paterno|Inula cappa|Inula salsoloides|Iodes cirrhosa|Iryanthera juruensis|Isoplexis chalcantha|Ixora chinensis|Jacobaea adonidifolia|Jacobaea cannabifolia|Juglans nigra|Jungermannia obovata|Jungermannia subulata|Justicia simplex|Kaempferia marginata|Kaunia saltensis|Khaya grandifoliola|Kummerowia striata|Lactarius atroviridis|Lactarius sanguifluus|Lactarius subpiperatus|Lactuca indica|Lechevalieria aerocolonigenes|Lecidea speirodes|Lepraria xanthina|Lespedeza davidii|Libocedrus yateensis|Licaria armeniaca|Lithocarpus polystachyus|Lithospermum canescens|Littorina littorea|Lobelia chinensis|Lotus albus|Lycium chinense|Lyophyllum shimeji|Macaranga tanarius|Malus sylvestris|Mammillaria coronata|Mammillaria magnimamma|Mandragora officinarum|Mangifera indica|Manihot esculenta|Mascarenhasia arborescens|Maytenus hookeri|Meconopsis horridula|Meconopsis napaulensis|Melaleuca decora|Melia azedarach|Menispermum canadense|Mentha spicata subsp. condensata|Merremia umbellata|Micromelum minutum|Micromonas pusilla|Millettia conraui|Monanchora pulchra|Monanthotaxis congoensis|Morinda coreia|Morus australis|Munronia delavayi|Mycena galericulata|Mycena haematopus|Myoporum platycarpum|Myrica rubra|Myrtus tomentosa|Narcissus concolor|Nauclea officinalis|Neolamarckia cadamba|Neonectria candida|Niphogeton ternata|Notechis scutatus|Ocimum gratissimum|Ocotea suaveolens|Oenothera biennis|Oncoba echinata|Ongokea gore|Operculina turpethum|Ophiolepis superba|Ophiura sarsi|Ormosia elata|Ormosia panamensis|Osmerus mordax|Ourouparia formosana|Oxera splendida|Pachybasium candidum|Palafoxia rosea|Palaquium canaliculatum|Papaver commutatum|Papilio phorcas|Parabenzoin trilobum|Paracoccus denitrificans|Paramignya griffithii|Parmelia zollingeri|Passiflora morifolia|Pedicularis condensata|Pedilanthus tithymaloides|Penicillium crustaceum|Peperomia heyneana|Periploca sepium|Perityle vaseyi|Pestalotiopsis virgatula|Petasites kablikianus|Phegopteris subaurita|Phellodendron sachalinense|Phlojodicarpus sibiricus|Phlomis regelii|Phlomoides medicinalis|Phoebe formosana|Phora scalaris|Phyllospongia dendyi|Physalis sordida|Pinna nobilis|Pinus monophylla|Piper elongatum|Piptadenia peregrina|Pistacia mexicana|Pithecellobium racemosum|Plakortis simplex|Plectocephalus chilensis|Pleurotus ostreatus|Plumbago pulchella|Plumeria alba|Poa sphondylodes|Podocarpus montanus|Polycephalomyces nipponicus|Polygala ruwenzoriensis|Polyporus cinnabarinus|Polytolypa hystricis|Porella swartziana|Primula grandiflora|Protea mellifera|Prumnopitys ferruginea|Pseudonocardia autotrophica|Pseudophryne coriacea|Pteris inaequalis|Pterocaulon polystachyum|Quercus mongolica|Quercus suber|Ramalina obtusata|Ranunculus laetus|Raputia simulans|Renealmia exaltata|Rheum webbianum|Rhinacanthus nasutus|Rhizobium etli|Rhizoctonia repens|Rhizophora conjugata|Rhodoglossum japonicum|Rhodomyrtus tomentosa|Rhoiptelea chiliantha|Rhus sylvestris|Roccellaria mollis|Rohdea wattii|Rosa hybrid cultivar|Rosmarinus officinalis|Rubrivivax gelatinosus|Rumex conglomeratus|Ruscus hypophyllum|Ruta pinnata|Salacia chinensis|Salmonella enterica subsp. enterica serovar anatum|Salvia coulteri|Salvia dorrii|Salvia miltiorrhiza|Salvia officinalis|Sanicula epipactis|Sapium haematospermum|Sarcophyton buitendijki|Sarcotragus spinosulus|Satureja cuneifolia|Sauropus quadrangularis|Schisandra arisanensis|Schisandra micrantha|Schrebera swietenoides|Sclerotinia fructicola|Scolytus multistriatus|Scopolia atropoides|Selaginella pallescens|Senecio desfontainei|Senecio flavus|Senecio gilliesi|Senecio heliopsis|Senecio polyodon|Senecio portalesianus|Senna sophera|Shorea resina-nigra|Sida cordifolia|Sideritis argosphacelus|Sideritis lotsyi|Silene inflata|Smallanthus glabratus|Smilax glabra|Smilax macrophylla|Solanum sisymbriifolium|Solanum spirale|Solenopsis invicta|Solidago petiolaris|Sonchus arvensis|Sonchus macrocarpus|Sophora angustifolia|Sophora japonica|Sophora leachiana|Spilanthes ocymifolia|Spodoptera littoralis|Stevia polycephala|Stevia purpurea|Streptomyces aurantiacus|Streptomyces aureus|Streptomyces fradiae|Streptomyces ipomoeae|Streptomyces kanamyceticus|Streptomyces mobaraensis|Streptomyces parvisporogenes|Streptomyces purpurogeneiscleroticus|Streptomyces roseoverticillatus|Streptomyces sclerotialus|Streptomyces xanthocidicus|Struthiopteris amabilis|Strychnos spinosa|Suillus bovinus|Swartzia madagascariensis|Symphyopappus compressus|Symplocos racemosa|Syzygium jambos|Syzygium samarangense|Tabernaemontana divaricata|Tadorna ferruginea|Talipariti tiliaceum|Taonia australasica|Tapeinosperma pseudojambosa|Taraxacum officinale|Taverniera aegyptiaca|Taxillus chinensis|Taxus drupacea|Teleogryllus emma|Tephrosia bidwilli|Terminalia calamansanay|Ternstroemia gymnanthera|Teucrium depressum|Thalysias juniperina|Thesium humile|Thevetia peruviana|Thielavia terricola|Thymbra spicata|Thymus piperella|Tilia vulgaris|Tornabea scutellifera|Trichia floriformis|Trichilia hirta|Trichilia rubescens|Tricholoma batschii|Turraeanthus mannii|Typha domingensis|Ungernia minor|Uvaria grandiflora|Vangueria tomentosa|Vernonia echitifolia|Vernonia lilacina|Viburnum lantana L.|Viburnum opulus L.|Viburnum plicatum Thunb.|Viburnum rhytidophyllum Hemsl.|Viburnum tinus L.|Viburnum x bodnantense Aberc.|Vismia cayennensis|Vitex pinnata|Vitis ficifolia|Vouacapoua macropetala|Werneria decora|Wolfiporia cocos|Xanthoparmelia camtschadalis|Xanthoparmelia pokornyi|Xanthoria parietina|Xylonagra arborea|Zaluzania grayana|Zanthoxylum acutifolium|Zanthoxylum armatum|Zanthoxylum simulans|[polyangium] brachysporum

>  <collections>  (48) 
ANPDB|Australian natural products|BIOFACQUIM|CMAUP (cCollective molecular activities of useful plants)|ChEBI NPs|ChemSpider NPs|ConMedNP|FooDB|Latin America dataset|NANPDB (Natural Products from Northern African Sources)|NPASS|NuBBEDB|Phyto4Health|SANCDB|Super Natural II|TCMDB-Taiwan (Traditional Chinese Medicine database)|TIPdb (database of Taiwan indigenous plants)|TPPT (Toxic Plants–PhytoToxins)|VietHerb|ZINC NP

>  <dois>  (48) 
10.1002/biuz.19840140514|10.1016/0031-9422(81)84067-8|10.1016/0031-9422(83)80247-7|10.1016/j.bmcl.2009.04.129|10.1016/j.bmcl.2010.05.061|10.1016/j.jep.2010.11.057|10.1016/j.phytol.2012.03.002|10.1021/acs.jnatprod.7b00241|10.1021/np0301543|10.1021/np0303411|10.1021/np070038q|10.1071/ch9781375|10.1099/00221287-129-3-543|10.1186/2193-1801-3-253|10.3109/13880209.2014.898078

>  <synonyms>  (48) 
559-70-6|Amyrin|beta-Amyrenol|Olean-12-en-3beta-ol|B-Amyrin|UNII-KM8353IPSO|3beta-hydroxyolean-12-ene|KM8353IPSO|CHEBI:10352|Olean-12-en-3-ol| (3b)-|AMYRIN| BETA-|EINECS 209-204-6|(3S|4aR|6aR|6bS|8aR|12aR|14aR|14bR)-4|4|6a|6b|8a|11|11|14b-octamethyl-1|2|3|4a|5|6|7|8|9|10|12|12a|14|14a-tetradecahydropicen-3-ol|NSC 527971|CHEMBL455098|(3beta)-olean-12-en-3-ol|-amyrin|beta -Amyrin|?-Amyrin|(3S|4aR|6aR|6bS|8aR|12aR|14aR|14bR)-4|4|6a|6b|8a|11|11|14b-octamethyl-1|2|3|4|4a|5|6|6a|6b|7|8|8a|9|10|11|12|12a|14|14a|14b-icosahydropicen-3-ol|I(2)-Amyrin|.BETA.-AMYRIN MI|SCHEMBL377754|beta-Amyrin| analytical standard|JFSHUTJDVKUMTJ-QHPUVITPSA-N|DTXSID201025005|EX-A6672|HY-N2922|BDBM50241955|MFCD00017381|AKOS032962060|LMPR0106150015|BS-32560|CS-0023527|NS00076600|C08616|D85202|A913759|Q27108621|beta-amyrin|\u221a\u00e9\u00ac\u2264-amyrin

>  <cas>  (48) 
559-70-6

$$$$

     RDKit          2D

 16 16  0  0  0  0  0  0  0  0999 V2000
   -5.9594   -0.3289    0.0000 C   0  0  0  0  0  0  0  0  0  0  0  0
   -4.6157    0.3379    0.0000 C   0  0  0  0  0  0  0  0  0  0  0  0
   -3.3664   -0.4923    0.0000 C   0  0  0  0  0  0  0  0  0  0  0  0
   -2.0228    0.1745    0.0000 C   0  0  0  0  0  0  0  0  0  0  0  0
   -1.9284    1.6715    0.0000 O   0  0  0  0  0  0  0  0  0  0  0  0
   -0.7735   -0.6558    0.0000 O   0  0  0  0  0  0  0  0  0  0  0  0
    0.5702    0.0110    0.0000 C   0  0  0  0  0  0  0  0  0  0  0  0
    0.6645    1.5081    0.0000 C   0  0  0  0  0  0  0  0  0  0  0  0
    2.0082    2.1749    0.0000 C   0  0  0  0  0  0  0  0  0  0  0  0
    2.1025    3.6719    0.0000 C   0  0  0  0  0  0  0  0  0  0  0  0
    3.2574    1.3446    0.0000 C   0  0  0  0  0  0  0  0  0  0  0  0
    3.1631   -0.1524    0.0000 C   0  0  0  0  0  0  0  0  0  0  0  0
    1.8194   -0.8192    0.0000 C   0  0  0  0  0  0  0  0  0  0  0  0
    1.7251   -2.3162    0.0000 C   0  0  0  0  0  0  0  0  0  0  0  0
    0.3814   -2.9830    0.0000 C   0  0  0  0  0  0  0  0  0  0  0  0
    2.9744   -3.1465    0.0000 C   0  0  0  0  0  0  0  0  0  0  0  0
  1  2  1  0
  2  3  2  3
  3  4  1  0
  4  5  2  0
  4  6  1  0
  6  7  1  0
  7  8  2  0
  8  9  1  0
  9 10  1  0
  9 11  2  0
 11 12  1  0
 12 13  2  0
 13 14  1  0
 14 15  1  0
 14 16  1  0
 13  7  1  0
M  END
>  <identifier>  (49) 
CNP0311245.0

>  <canonical_smiles>  (49) 
CC=CC(=O)OC1=CC(C)=CC=C1C(C)C

>  <standard_inchi>  (49) 
InChI=1S/C14H18O2/c1-5-6-14(15)16-13-9-11(4)7-8-12(13)10(2)3/h5-10H,1-4H3

>  <standard_inchi_key>  (49) 
FGMNYSJXCIZEOU-UHFFFAOYSA-N

>  <name>  (49) 
nan

>  <iupac_name>  (49) 
(2-isopropyl-5-methyl-phenyl) but-2-enoate

>  <annotation_level>  (49) 
5

>  <total_atom_count>  (49) 
34

>  <heavy_atom_count>  (49) 
16

>  <molecular_weight>  (49) 
218.3

>  <exact_molecular_weight>  (49) 
218.13068

>  <molecular_formula>  (49) 
C14H18O2

>  <alogp>  (49) 
3.60

>  <topological_polar_surface_area>  (49) 
26.30

>  <rotatable_bond_count>  (49) 
3

>  <hydrogen_bond_acceptors>  (49) 
2

>  <hydrogen_bond_donors>  (49) 
0

>  <hydrogen_bond_acceptors_lipinski>  (49) 
2

>  <hydrogen_bond_donors_lipinski>  (49) 
0

>  <lipinski_rule_of_five_violations>  (49) 
0

>  <aromatic_rings_count>  (49) 
1

>  <qed_drug_likeliness>  (49) 
0.44

>  <formal_charge>  (49) 
0

>  <fractioncsp3>  (49) 
0.36

>  <number_of_minimal_rings>  (49) 
1

>  <van_der_walls_volume>  (49) 
221.86

>  <contains_sugar>  (49) 
False

>  <contains_ring_sugars>  (49) 
False

>  <contains_linear_sugars>  (49) 
False

>  <murcko_framework>  (49) 
c1ccccc1

>  <np_likeness>  (49) 
0.07

>  <chemical_class>  (49) 
Prenol lipids

>  <chemical_sub_class>  (49) 
Monoterpenoids

>  <chemical_super_class>  (49) 
Lipids and lipid-like molecules

>  <direct_parent_classification>  (49) 
Aromatic monoterpenoids

>  <np_classifier_pathway>  (49) 
Terpenoids

>  <np_classifier_superclass>  (49) 
Monoterpenoids

>  <np_classifier_class>  (49) 
Menthane monoterpenoids

>  <np_classifier_is_glycoside>  (49) 
False

>  <organisms>  (49) 
Hofmeisteria schaffneri

>  <collections>  (49) 
BIOFACQUIM|Latin America dataset

>  <dois>  (49) 
10.1016/j.jep.2010.07.009

>  <synonyms>  (49) 
Hofmeisterin III

>  <cas>  (49) 
nan

$$$$

     RDKit          2D

 30 33  0  0  0  0  0  0  0  0999 V2000
   -7.2343    3.0259    0.0000 C   0  0  0  0  0  0  0  0  0  0  0  0
   -6.8319    1.5809    0.0000 C   0  0  0  0  0  0  0  0  0  0  0  0
   -5.3793    1.2068    0.0000 C   0  0  0  0  0  0  0  0  0  0  0  0
   -4.9769   -0.2382    0.0000 C   0  0  0  0  0  0  0  0  0  0  0  0
   -3.5243   -0.6123    0.0000 C   0  0  0  0  0  0  0  0  0  0  0  0
   -3.1220   -2.0573    0.0000 C   0  0  0  0  0  0  0  0  0  0  0  0
   -4.1722   -3.1283    0.0000 C   0  0  0  0  0  0  0  0  0  0  0  0
   -1.6694   -2.4314    0.0000 C   0  0  0  0  0  0  0  0  0  0  0  0
   -1.1182   -3.8264    0.0000 C   0  0  0  0  0  0  0  0  0  0  0  0
    0.3789   -3.7333    0.0000 C   0  0  0  0  0  0  0  0  0  0  0  0
    0.7530   -2.2807    0.0000 C   0  0  0  0  0  0  0  0  0  0  0  0
    2.0828   -1.5867    0.0000 C   0  0  0  0  0  0  0  0  0  0  0  0
    3.3487   -2.3913    0.0000 C   0  0  0  0  0  0  0  0  0  0  0  0
    4.6785   -1.6973    0.0000 C   0  0  0  0  0  0  0  0  0  0  0  0
    4.7424   -0.1987    0.0000 C   0  0  0  0  0  0  0  0  0  0  0  0
    6.0722    0.4953    0.0000 C   0  0  0  0  0  0  0  0  0  0  0  0
    6.1361    1.9940    0.0000 C   0  0  0  0  0  0  0  0  0  0  0  0
    7.4659    2.6880    0.0000 O   0  0  0  0  0  0  0  0  0  0  0  0
    4.8701    2.7986    0.0000 C   0  0  0  0  0  0  0  0  0  0  0  0
    3.5403    2.1046    0.0000 C   0  0  0  0  0  0  0  0  0  0  0  0
    3.4765    0.6060    0.0000 C   0  0  0  0  0  0  0  0  0  0  0  0
    2.2105    1.4106    0.0000 C   0  0  0  0  0  0  0  0  0  0  0  0
    2.1467   -0.0880    0.0000 C   0  0  0  0  0  0  0  0  0  0  0  0
    0.8807    0.7166    0.0000 C   0  0  0  0  0  0  0  0  0  0  0  0
   -0.4490    0.0226    0.0000 C   0  0  0  0  0  0  0  0  0  0  0  0
   -0.5129   -1.4761    0.0000 C   0  0  0  0  0  0  0  0  0  0  0  0
   -1.8560   -0.8081    0.0000 C   0  0  0  0  0  0  0  0  0  0  0  0
   -4.3291    2.2778    0.0000 C   0  0  0  0  0  0  0  0  0  0  0  0
   -4.7314    3.7228    0.0000 C   0  0  0  0  0  0  0  0  0  0  0  0
   -2.8764    1.9037    0.0000 C   0  0  0  0  0  0  0  0  0  0  0  0
  1  2  1  0
  3  2  1  1
  3  4  1  0
  4  5  1  0
  5  6  1  0
  6  7  1  6
  6  8  1  0
  8  9  1  6
  9 10  1  0
 11 10  1  6
 11 12  1  0
 12 13  1  1
 13 14  1  0
 14 15  2  0
 15 16  1  0
 16 17  1  0
 17 18  1  6
 17 19  1  0
 19 20  1  0
 20 21  1  0
 21 22  1  6
 21 23  1  0
 23 24  1  6
 24 25  1  0
 25 26  1  0
 26 27  1  6
  3 28  1  0
 28 29  1  0
 28 30  1  0
 26  8  1  0
 26 11  1  0
 23 12  1  0
 21 15  1  0
M  END
>  <identifier>  (50) 
CNP0236620.1

>  <canonical_smiles>  (50) 
CC[C@H](CC[C@@H](C)[C@H]1CC[C@H]2[C@@H]3CC=C4C[C@@H](O)CC[C@]4(C)[C@H]3CC[C@]12C)C(C)C

>  <standard_inchi>  (50) 
InChI=1S/C29H50O/c1-7-21(19(2)3)9-8-20(4)25-12-13-26-24-11-10-22-18-23(30)14-16-28(22,5)27(24)15-17-29(25,26)6/h10,19-21,23-27,30H,7-9,11-18H2,1-6H3/t20-,21-,23+,24+,25-,26+,27+,28+,29-/m1/s1

>  <standard_inchi_key>  (50) 
KZJWDPNRJALLNS-VJSFXXLFSA-N

>  <name>  (50) 
BETA-SITOSTEROL

>  <iupac_name>  (50) 
(3~{S},8~{S},9~{S},10~{R},13~{R},14~{S},17~{R})-17-[(1~{R},4~{R})-4-ethyl-1,5-dimethyl-hexyl]-10,13-dimethyl-2,3,4,7,8,9,11,12,14,15,16,17-dodecahydro-1~{H}-cyclopenta[a]phenanthren-3-ol

>  <annotation_level>  (50) 
5

>  <total_atom_count>  (50) 
80

>  <heavy_atom_count>  (50) 
30

>  <molecular_weight>  (50) 
414.72

>  <exact_molecular_weight>  (50) 
414.38617

>  <molecular_formula>  (50) 
C29H50O

>  <alogp>  (50) 
8.02

>  <topological_polar_surface_area>  (50) 
20.23

>  <rotatable_bond_count>  (50) 
6

>  <hydrogen_bond_acceptors>  (50) 
1

>  <hydrogen_bond_donors>  (50) 
1

>  <hydrogen_bond_acceptors_lipinski>  (50) 
1

>  <hydrogen_bond_donors_lipinski>  (50) 
1

>  <lipinski_rule_of_five_violations>  (50) 
1

>  <aromatic_rings_count>  (50) 
0

>  <qed_drug_likeliness>  (50) 
0.44

>  <formal_charge>  (50) 
0

>  <fractioncsp3>  (50) 
0.93

>  <number_of_minimal_rings>  (50) 
4

>  <van_der_walls_volume>  (50) 
445.51

>  <contains_sugar>  (50) 
False

>  <contains_ring_sugars>  (50) 
False

>  <contains_linear_sugars>  (50) 
False

>  <murcko_framework>  (50) 
C1=C2CCCCC2C3CCC4CCCC4C3C1

>  <np_likeness>  (50) 
2.68

>  <chemical_class>  (50) 
Steroids and steroid derivatives

>  <chemical_sub_class>  (50) 
Stigmastanes and derivatives

>  <chemical_super_class>  (50) 
Lipids and lipid-like molecules

>  <direct_parent_classification>  (50) 
Stigmastanes and derivatives

>  <np_classifier_pathway>  (50) 
Terpenoids

>  <np_classifier_superclass>  (50) 
Steroids

>  <np_classifier_class>  (50) 
Stigmastane steroids

>  <np_classifier_is_glycoside>  (50) 
False

>  <organisms>  (50) 
Aaptos aaptos|Absidia caerulea|Abuta velutina|Abutilon indicum|Acacia acuminata|Acacia discolor|Acacia lasiopetala|Acacia linarioides|Acacia pulchella|Acanthias vulgaris|Acanthopanax brachypus|Acanthopanax gracilistylus|Acanthopanax sessiliflorum|Acanthothamnus aphyllus|Acer triflorum|Achillea alexandri-regis Bornm.& Rudski|Achillea arabica|Achillea magnifica|Achillea micrantha|Achillea pratensis|Achillea serbica|Achyranthes aspera|Achyrocline tomentosa|Acicarpha tribuloides|Acinetobacter junii|Aconitum campylorrhynchum|Aconitum carmichaelii|Aconitum contortum|Aconitum fauriei|Aconitum japonicum|Aconitum leucostomum|Aconitum nevadense|Aconitum subcuneatum|Aconitum tanguticum|Aconitum tianschanicum|Aconitum turczaninowii|Aconitum zuccarini|Acorus calamus|Acrisione denticulata|Acritopappus longifolius|Acronychia laurifolia|Acronychia muelleri|Acrostichum aureum|Actinopolyspora erythraea|Adansonia digitata|Adenium obesum|Adenocarpus hispanicus|Adesmia boronioides|Adiantum capillus-veneris|Adiantum caudatum|Adiantum lunulatum|Adina racemosa|Aegilops geniculata|Aegopodium podagraria|Aeollanthus buchnerianus|Aeschynanthus parvifolius|Aesculus parviflora|Aesculus punduana|Aframomum alboviolaceum|Aframomum sulcatum|Aganosma caryophyllata|Agardhiella tenera|Agaricus integer|Agave melliflua|Agave palmaris|Agelas longissima|Ageratina gilbertii|Ageratina saltillensis|Aglaia lawii|Aglaia pyramidata|Aglaia rubiginosa|Agrostis epigeios|Ailanthus altissima|Ajania fruticulosa|Ajuga australis|Ajuga taiwanensis|Aka coralliphagum|Albatrellus caeruleoporus|Alchornea cordifolia|Aldina heterophylla|Alectoria rigida|Aleurites fordii Hemsl.|Alexandrium excavatum|Alexandrium hiranoi|Alhagi persarum|Alibertia macrophylla|Alisma plantago-aquatica|Allium neapolitanum|Allium stipitatum|Allomyces macrogynus|Almeidea coerulea|Alnus cordata|Aloe africana|Aloe vera|Alpinia flabellata|Alpinia galanga|Alpinia katsumadai|Alpinia malaccensis|Alpinia oxyphylla|Alpinia pinnanensis|Alpinia pulcherrima|Alseodaphne corneri|Alsidium corallinum|Alstonia pittieri|Alstonia spectabilis|Alternaria bataticola|Amanita caesarea|Amaranthus hybr|Amentotaxus yunnanensis|Ammannia baccifera|Amomum daniellii|Amomum longiligulare|Amomum sceptrum|Amomum sulcatum|Amomum zambesiacum|Amoora rohituka|Amsonia angustifolia|Amycolatopsis sulphurea|Anabaena sphaerica|Anacardium parvifolium|Anacystis montana|Anaptychia heterochroa|Anaptychia obscura|Anaptychia speciosa|Anarsia lineatella|Andrographis paniculata|Anemone coronaria|Anemone tomentosa|Angelica decursiva|Angelica furcijuga KITAGAWA|Angelica genuflexa|Angelica officinalis|Angelica sinensis|Angelica taiwaniana|Angiopteris evecta|Angostura granulosa|Aniba gigantifolia|Aniba kappleri|Aniba rosaeodora|Aniba terminalis|Anisomeles indica|Annona cherimola|Annona coriacea|Annona cornifolia|Annona glabra|Annona purpurea|Annulohypoxylon truncatum|Anomala albopilosa|Antennaria cana|Anthopleura xanthogrammica|Anthotroche myoporoides|Antirrhinum majus|Antitrogus consanguineus|Antrodia sinuosa|Apis mellifera|Apium petroselinum|Aplidium conicum|Aplidium orthium|Aplophyllum pedicellatum|Aplophyllum versicolor|Aplysia punctata|Aplysina fulva|Apollonias barbujana|Apuleia leiocarpa|Aquilaria sinensis|Aquilegia ecalcarata|Aquilegia viridiflora|Arabidopsis thaliana|Aralia continentalis|Araucaria angustifolia|Arbacia pustulosa|Arbutus menziesii|Arctium lappa|Ardisia japonica|Arenaria oreophila|Argyranthemum frutescens|Argyreia nervosa|Aria elegans|Aria kumaonensis|Ariocarpus fissuratus|Aristea ecklonii|Aristolochia chamissonis|Aristolochia contorta|Aristolochia debilis|Aristolochia elegans|Aristolochia heterophylla Hemsl|Aristolochia kaempferi|Aristolochia manshuriensis|Aristolochia pubescens|Arnebia decumbens|Artabotrys uncinatus|Artemisia annua|Artemisia annua L.|Artemisia apiacea|Artemisia argentea|Artemisia assoana|Artemisia austriaca|Artemisia brevifolia|Artemisia campestris|Artemisia capillaris|Artemisia eriopoda|Artemisia hanseniana|Artemisia minor|Artemisia pedemontana|Artemisia rutifolia|Artemisia sieversiana|Artemisia taurica|Artemisia vulgaris|Arthrinium sacchari|Arthrobotrys oligospora|Arum montanum|Aruncus dioicus|Asclepias subulata|Ascodesmis sphaerospora|Asparagus tenuifolium|Aspergillus candidus|Aspergillus duricaulis|Aspergillus microcysticus|Aspergillus multicolor|Aspergillus oryzae|Aspergillus petrakii|Aspergillus unguis|Asphodeline globifera|Asphodeline lutea|Asplenium laciniatum|Asplenium ruprechtii|Asplenium septentrionale|Aster altaicus|Aster indicus|Asterias forbesi|Asterias glacialis|Asteriscus aquaticus|Asterococcus muratae|Astilbe myriantha|Astragalus altaicus|Astragalus caspicus|Astragalus complanatus|Astragalus glycyphyllos|Astragalus gummifer|Astragalus membranaceus|Astragalus pamirensis|Astragalus sempervirens|Astroloma humifusum|Atalantia wightii|Atractylodes lancea|Atta sexdens rubropilosa|Attagenus elongatulus|Atylosia trinervia|Aulacocephalus temmincki|Aureoumbra lagunensis|Auricularia auricula-judae|Austrobaileya scandens|Austroplenckia populnea|Axinyssa tethyoides|Baccharis grandicapitulata|Baccharis minutiflora|Baccharis truncata|Bacillus subtilis|Bacterial strain|Bactris plumeriana|Badilloa salicina|Bahia xylopoda|Baileya pauciradiata|Baillonella toxisperma|Balanophora japonica|Ballota limbata|Baphicacanthus cusia|Bassia longifolia|Batatas edulis|Bauhinia candicans|Bauhinia purpurea|Bauhinia vahlii L.|Beaumontia brevituba|Beauveria felina|Beesia calthifolia|Begonia nantoensis|Beilschmiedia anacardiolides|Beilschmiedia tsangii|Beilschmiedia zenkeri|Bellium bellidioides|Benkara malabarica|Berberis aquifolium|Berberis orthobotrys|Berberis pseudanubalata|Bergenia ligulata|Berkheya radula|Berkheya rhapontica|Betula alnoides|Betula maximowicziana|Betula platyphylla|Bidens tripartita|Bishofia javanica|Bishovia boliviensis|Bituminaria bituminosa|Blastochloris viridis|Blepharis sindica|Blumea aromatica|Blumea eriantha|Blumea mollis|Blutaparon portulacoides|Boehmeria holosericea|Boehmeria nivea|Boehmeria tricuspis|Bohadschia vitiensis|Boletus bovinus|Boletus edulis|Bombus pascuorum|Borassus flabellifer|Boronia alata|Boronia lanceolata|Bosistoa floydii|Boswellia papyrifera|Bothriocline longipes|Botrychium ternatum|Botryosphaeria berengeriana|Brassica oleracea var. sabauda|Bredia tuberculata|Brenneria rubrifaciens|Breynia fruticosa|Brodiaea californica|Brosimum acutifolium|Brosimum rubescens|Bruguiera cylindrica|Bruguiera gymnorhiza|Brunfelsia grandiflora|Bryum rutilans|Bryum weigelii|Buchenavia tetraphylla|Buddleja madagascariensis|Bufo bankorensis|Bufo bufo|Bugula neritina|Bulbinella floribunda|Bunodactis xanthogrammica|Bupleurum scorzonerifolium|Burkholderia pyrrocinia|Buxus hildebrandtii|Byssothecium obiones|Cabralea canjerana|Cabucala madagascariensis|Cacalia delphiniifolia|Cacalia robusta|Cadlina luteomarginata|Caesalpinia pulcherrima|Caesalpinia volkensii|Caiman crocodilus|Cakile maritima|Calea cuneifolia|Calea harleyi|Callicarpa arborea|Callicarpa integerrima|Callicarpa macrophylla|Callicarpa pilosissima|Callistemon coccineus|Callitris drummondii|Callyspongia spinosissima|Calophyllum bracteatum|Calophyllum trapezifolium|Caloscypha fulgens|Calostephane divaricata|Calpurnia aurea|Calycotome villosa|Calyx podatypa|Canarium muelleri|Canarium schweinfurthii|Candida sp.|Candida utilis|Capparis aegyptia|Capparis angulata|Capparis deserti|Capparis leucophylla|Capparis ovata|Capsicum baccatum|Caragana aurantiaca|Caragana microphylla|Carapichea ipecacuanha|Carcinus maenas|Cardiospermum hirsutum|Carpesium faberi|Carthamus tinctorius|Casearia ilicifolia|Casimiroa edulis|Cassia dentata|Cassia javanica|Cassia macrantha|Cassia multijuga|Cassia roxburghii|Cassia siamea|Cassia speciosa|Cassine papillosa|Castanopsis cuspidata|Casuarina equisetifolia|Casuarina equisetifolia L.|Casuarina junghaniana|Casuarina rigida|Ceanothus velutinus|Cedrela odorata|Cedrela salvadorensis|Ceiba insignis|Ceiba pentandra|Celtis laevigata|Centaurea amara|Centaurea benedicta|Centaurea calcitrapa|Centaurea cana|Centaurea cineraria L.|Centaurea collina|Centaurea dealbata|Centaurea derventana|Centaurea horrida|Centaurea musimomum|Centaurea napifolia|Centaurea nigrescens|Centaurea phyllocephala|Centella asiatica|Centipeda minima|Centrosema pubescens|Cephalocroton cordofanus|Cephalotaxus sinensis|Ceramium botryocarpum|Ceratocystis variospora|Cercospora melonis|Cereus chrysacanthus|Ceriops decandra|Cetorhinus maximus|Cetraria pinastri|Chaenomeles sinensis|Chaenomeles sinensis KOEHNE|Chaenomeles speciosa|Chaetomella raphigera|Chaetomium arcuatum|Chalina arbuscula|Chamaecyparis formosensis|Chara corallina|Charpentiera obovata|Cheilanthes mysurensis|Chelonia japonica|Chilo auricilius|Chione venosa (sw.) Urban var.venosa|Chisocheton siamensis|Chiton tuberculatus|Chlamydomonas allensworthii|Chloranthus fortunei|Chloranthus holostegius|Chlorophytum borivilianum|Chlorurus gibbus|Choisya arizonica|Chondrophycus papillosus|Chorisia insignis|Chromodoris cavae|Chromodoris hamiltoni|Chrysoma pauciflosculosa|Chrysosplenium americanum|Chrysosplenium oppositifolium|Chrysosporium queenslandicum|Chuquiraga erinacea|Chuquiraga ulicina|Cichorium endivia|Cichorium glandulosum|Cichorium intybus|Cinchona tucujensis|Cinnamomum subavenium|Cinnamomum tenuifolium|Cinnamosma madagascariensis|Cipadessa boivinina|Cipadessa cinerascens|Cirsium carolinianum|Cirsium japonicum|Cirsium setosum|Citr|Citrus aurantium|Citrus hystrix|Citrus limon|Citrus reshni|Citrus sinensis|Citrus trifoliata|Citrus wilsonii|Cladonia impexa|Cladonia pityrea|Cladrastis kentukea|Clarisia racemosa R.et P.|Clausena dunniana|Clausena indica|Clausena pentaphylla (Roxb.)DC.|Claviceps microcephala|Cleidion spiciflorum|Cleidion spiciflorum (Burm. f.) Merr.|Cleistocalyx operculatus|Clematis chinensis|Clematis hexapetala|Clematis manshurica|Clematis tangutica|Clematis terniflora var. mandshurica|Cleome brachycarpa|Clerodendron neutens|Clinacanthus nutans|Clinopodium gracile|Clitocybe fasciculata|Cnidoscolus texanus|Coccoloba excoriata|Cocculus hirsutus|Cochliobolus heterostrophus|Codium dwarkense|Codonopsis pilosula|Codonopsis pilosula subsp. tangshen|Coelogyne flavida|Coffea canephora|Coffea charrieriana|Coffea congensis|Coffea eugenioides|Coffea hetero calyx|Coffea humblotiana|Coffea humilis|Coffea kapakata|Coffea liberica var.dewevrei|Coffea liberica var.liberica|Coffea pseudozanguebariae|Coffea racemosa|Coffea salvatrix|Coffea sessiliflora|Coffea stenophylla|Coleus coerulescens|Coleus scutellarioides|Colletotrichum dematium|Colpomenia sinuosa|Combretum quadrangulare|Commiphora confusa|Commiphora opobalsamum|Concha mauritiae arabicae|Conchocarpus heterophyllus|Conger myriaster|Conocephalum japonicum|Consolida pubescens|Conus pulicarius|Coprinellus flocculosus|Coprinus similis|Coprosma australis|Coptis chinensis|Coptis deltoidea|Coptis japonica|Coptis teeta|Corchorus depressus|Cordyceps sinensis|Cordylanthus kingii|Corethrodendron scoparium|Coriolus versicolor|Cornus kousa|Cornus mas|Cortinarius evernius|Cortinarius rubellus|Cortinarius venetus|Cortinarius viola|Corydalis claviculata|Corydalis conspersa|Corydalis sewerzowi|Corylus avellana|Corylus maxima|Corynanthe pachyceras|Costus speciosus|Cota tinctoria|Couepia polyandra|Coussarea brevicaulis|Crambe kotschyana|Cratoxylum maingayi|Cremanthodium ellisii|Cremastra appendiculata|Crematogaster africana|Crematogaster brevis|Crepis foetida|Crinipellis scabella|Crinum stuhlmannii|Crotalaria assamica|Crotalaria laburnifolia|Crotalaria mitchellii|Crotalaria pallida|Crotalaria podocarpa|Crotalaria walkeri|Croton arboreous|Croton cumingii|Croton diasii|Croton geayi|Croton lechleri Mull.Arg.|Croton montevidensis|Croton regelianus|Croton ruizianus|Croton steenkampianus|Croton urucurana|Croton urucurana Baill.|Croton zambesicus|Crotone hieronymi|Cryptocarya idenburgensis|Cryptolestes pusillus|Cryptosporium pinicola|Cryptotermes brevis|Cullen corylifolium|Cunninghamella echinulata|Cupania vernalis|Cuphea carthagenensis|Cuphea infundibulum|Cupressus macrocarpa|Curcuma kwangsiensis|Curcuma phaeocaulis|Curcuma wenyujin|Curcuma zedoaria|Cusparia macrocarpa|Cyathula tomentosa|Cyathus helenae|Cyathus intermedius|Cyberlindnera jadinii|Cybister confusus|Cybister lateralimarginalis|Cycas armstrongii|Cyclolobium clausseni|Cylas formicarius|Cylindropuntia echinocarpus|Cymbastela coralliophila|Cymbopogon flexuosus|Cynanchum taiwanianum|Cynoglossum amabile|Cynoglossum viridiflorum|Cynthia savignyi|Cyperus rotundus|Cyrtocarpa procera|Cystophora scalaris|Cystoseira barbata|Cytisus canariensis|Cytisus supinus|Dacrycarpus imbricatus|Dacryodes normandii|Dactylosporangium thailandense|Daemonorops draco|Dahlstedtia pentaphylla|Dalbergia ecastaphyllum|Dalbergia monetaria|Dalbergia nitidula|Dalbergia volubilis|Daldinia concentrica|Dalea purpurea|Dalea tinctoria|Dalea tuberculata|Danae racemosa|Daphne arisanensis|Daphne aurantiaca|Daphne genkwa|Daphniphyllum calycinum|Debaromyces hansenii|Decachaeta scabrella|Decaisnea fargesii|Delphinium tricorne|Delphinium winklerianum|Dendrobates tinctorius|Dendrobium crepidatum|Dendrobium fimbriatum|Dendrobium loddigesii|Dendrobium nobile|Dendrobium nobile Lindl.|Dendroctonus pseudotsugae|Dentitheca habereri|Dermocybe semisanguinea|Derris amazonica|Derris obtusa|Derris rariflora|Diaphus suborbitalis|Diaporthe longicolla|Dichrostachys cinerea Maab.|Dicliptera riparia|Dictamnus angustifolius|Dictamnus dasycarpus|Dictamnus hispanicus|Dictyoloma vandellianum|Dictyota linearis|Didymium bahiense|Digitalis canariensis|Digitalis obscura|Dilodendron bipinnatum|Dimorphocarpa wislizeni|Dioscorea colletii|Dioscorea cyphocarpa|Dioscorea gracillima|Dioscorea japonica|Dioscorea mexicana|Dioscorea olfersiana|Dioscorea opposita|Dioscorea polystachya|Dioscoreophyllum cumminsii|Diospyros acuta|Diospyros buxifolia|Diospyros chaetocarpa|Diospyros chloroxylon|Diospyros cordifolia|Diospyros discolor|Diospyros ebenaster|Diospyros ebenum|Diospyros eriantha|Diospyros ferrea|Diospyros hirsuta|Diospyros indica|Diospyros kaki|Diospyros kirkii|Diospyros lotus|Diospyros malanonilau|Diospyros melanoxylon|Diospyros montana|Diospyros moonii|Diospyros morrisiana|Diospyros nigra|Diospyros oblongifolia|Diospyros oppositifolia|Diospyros peregrina|Diospyros quaesita|Diospyros rheophytica|Diospyros spinescens|Diospyros texana|Diospyros thwaitesii|Diospyros tomentosa|Diospyros walkeri|Dipentodon sinicus|Diplazium esculentum|Diplopteraster multipes|Diploschistes cretaceus|Diplotropis purpurea|Dipsacus asperoides|Dipterocarpus dyeri|Discaria chacaye|Disporopsis aspera|Disynaphia halimifolia|Dolichandrone crispa|Dolichospermum viguieri|Doodia picta|Doris montereyensis|Dorstenia angusticornis|Dorstenia barteri var. subtriangularis|Dorstenia zenkeri|Dorycnium hirsutum|Dracaena draco|Dracaena ombet|Dracocephalum moldavica|Drimia fugax|Dryopteris crassirhizoma|Drypetes inaequalis|Drypetes tessmanniana|Duddingtonia flagrans|Duguetia eximia|Duguetia hadrantha|Dumortiera hirsuta|Duranta plumieri|Durio carinatus|Durio zibethinus|Dysosma pleiantha|Dysoxylum lenticellatum|Dysoxylum macranthum|Dysoxylum malabaricum|Dytiscus marginalis|Ecballium elaterium|Ecbolium linneanum|Echinacea simulata|Echinocardium cordatum|Echinocereus blanckii|Echinocereus triglochidiatus|Echinoclathria subhispida|Echinodontium tsugicola|Echinosophora koreensis|Echinus microtuberculatus|Echiochilon pauciflorum|Echium plantagineum|Eclipta prostrata|Egregia menziesii|Elaeagnus pungens|Elaphoglossum lindbergii|Eleutherococcus senticosus Rupr.and Maxim.|Elsholtzia ciliata|Embelia ribes|Embelia ribes Burm.|Emmotum nitens|Empetrum nigrum|Empleurum unicapsulare|Endiandra palmerstoni|Endlicheria sericea|Enkianthus cernuus|Entada africana|Entada polystachya|Entada scandens|Enterococcus faecalis|Enterospermum pruinosum|Ephedra altissima|Ephedra aphylla|Ephestia kuehniella|Epigaea asiatica|Epimedium grandiflorum|Epimedium koreanum|Epimedium sempervirens|Epimedium wushanense|Epinetrum cordifolium|Epipedobates anthonyi|Eremanthus bicolor|Eremanthus incanus|Eremurus chinensis|Eria siamensis|Eria tomentosa|Erica cinerea|Erigeron multiradiatus|Eriococcus coriaceus|Erioderma chilense|Eriogaster lanestris|Eriogonum nudum|Eriolaena hookeriana|Eriostemon brucei|Erycibe expansa|Erylus nobilis|Erysimum carniolicum|Erythrina arborescens Roxb.|Erythrina chiriquensis|Erythrina sandwicensis|Erythrina senegalensis|Erythrophleum africanum|Esenbeckia grandiflora|Esenbeckia hartmanii|Eskemukerjea megacarpum|Espeletia moritziana|Ethulia conyzoides|Eucalyptus bakeri|Eucalyptus camaldulensis|Eucalyptus camaldulensis var.obtusa|Eucalyptus campanulata|Eucalyptus citriodora|Eucalyptus cladocalyx|Eucalyptus hybr|Eucalyptus kitsoni|Eucalyptus kitsoniana|Eucalyptus nova-anglica|Eucalyptus rubida|Eucommia ulmoides|Eugenia wallichii|Eunicea knighti|Eunicella cavolinii|Euodia ruticarpa|Euonymus alatus|Euonymus laxiflorus|Euonymus nanus|Euonymus pendulus|Eupatorium cannabinum|Eupatorium macrocephalum Lee.|Euphausia superba|Euphorbia antiquorum|Euphorbia cattimandoo|Euphorbia characias|Euphorbia erythraeae|Euphorbia esula|Euphorbia formosana|Euphorbia guyoniana|Euphorbia helioscopia|Euphorbia hirta|Euphorbia indica|Euphorbia ingens|Euphorbia jaxartica|Euphorbia lamprocarpa|Euphorbia micractina|Euphorbia palustris|Euphorbia paralias|Euphorbia polygonifolia|Euphorbia pulcherrima|Euphorbia sancta|Euphorbia segetalis|Euphorbia sessiliflora|Euphorbia sessiliflora Roxb.|Euphorbia tirucalli|Euphrasia rubra|Euplotes vannus|Eurya japonica|Euryops algoensis|Euryops lateriflorus|Eutreptia viridis|Eutrochium purpureum|Euxylophora paraensis|Evea brasiliensis|Evodia rutaecarpa|Excoecaria agallocha|Exochorda giraldii|Eysenhardtia platycarpa|Fagara budrunga|Fagara heitzii|Fagara tessmannii Engl.|Fagopyrum esculentum|Falcaria vulgaris|Fallopia multiflora|Farfugium japonicum|Fenneropenaeus orientalis|Ferula ammoniacum|Ferula assa-foetida|Ferula diversivittata|Ferula szowitsiana|Ferula transiliensis|Ficus beecheyana|Ficus bengalensis|Ficus carica|Ficus eriobotryoides|Ficus microcarpa|Ficus mucuso|Ficus palmata|Ficus septica|Flaveria bidentis|Flavoparmelia caperata|Flavoparmelia euplecta|Flindersia dissosperma|Flindersia ifflaiana|Flindersia laevicarpa C.T.White et Francis.|Flueggea microcarpa|Forsythia suspensa|Forsythia viridissima|Fouquieria diguetii|Fragaria vesca|Fraxinus angustifolia|Fraxinus chinensis subsp. rhynchophylla|Fritillaria hupehensis|Fritillaria pallidiflora|Fritillaria thunbergii|Fructusgleditsia|Frullania brasiliensis|Frullania monocera|Fuligo candida|Fumaria indica|Furcraea cabuya|Fusarium avenaceum|Fusarium sporotrichioides|Fusarium sulphureum|Gadus brandti|Gaertnera morindoides|Galium uliginosum|Ganoderma lucidum|Garcia parviflora|Garcinia afzelii ENGL.|Garcinia cambogia|Garcinia conrauana|Garcinia echinocarpa|Garcinia intermedia|Garcinia lateriflora|Garcinia latissima|Garcinia mangostana|Garcinia mangostana L.|Garcinia multiflora|Garcinia scortechinii|Garcinia terpnophylla|Gardenia jasminoides|Gasterosteus aculeatus|Gastrodia elata|Gavia immer|Gazania rigens|Genista anglica|Genista hystrix|Genista sessilifolia|Gentiana bellidifolia|Gentiana crassicaulis|Gentiana lutea|Gentiana lutea L.|Gentiana macrophylla|Geranium macrorrhizum L.|Geum japonicum|Ginkgo biloba L.|Gleditsia sinensis|Gleditsia sinensis LAM.|Glenodinium halli|Glochidion puberum|Gloiopeltis furcata|Glomus mosseae|Glycine max|Glycosmis puberula|Glycyrrhiza inflata|Glycyrrhiza triphylla|Gmelina arborea|Gnaphalium oligandrum|Gnaphalium pellitum|Gnetum cleistostachyum|Gnetum latifolium|Gnidia subcordata|Goldfussia yunnanensis|Gomortega keule|Gomphostemma parviflorum|Gomphrena celosioides|Goniothalamus malayanus|Goniothalamus umbrosus|Gonospermum canariense|Gorgonocephalus chilensis|Gossypium sturtianum|Goupia glabra|Grataegus pinnatifida|Gratiola officinalis|Grewia mollis|Grewia villosa|Grosvenoria rimbachii|Guarea guidonia|Guarea macrophylla|Guatteria dumetorum|Guazuma tomentosa|Gutierrezia dracunculoides|Gutierrezia gilliesii|Gutierrezia gymnospermoides|Gymnocarpium robertianum|Gymnopus androsaceus|Gymnosporia arbutifolia|Gypsophila patrini|Hakea amplexicaulis|Halidrys siliquosa|Halimium halimifolium|Halimium umbellatum|Hansenia forbesii|Haplopappus arbutoides|Haplophragma adenophyllum|Haplophyllum acutifolium|Haplophyllum bucharicum|Hedeoma pulegioides|Hedera canariensis|Hedera rhombea|Hedychium yunnanense|Hedysarum gmelini|Hedysarum multijugum|Hedysarum sachalinense|Helenium aromaticum|Helianthus annuus|Helichrysum auriceps|Helichrysum dendroideum|Helichrysum lindleyi|Helichrysum nudifolium|Helicteres angustifolia|Heliotropium filifolium|Heliotropium glutinosum|Heliotropium indicum|Helipterum gnaphaloides|Helipterum roseum|Helix pomatia|Hemerocallus minor|Hemiphragma heterophyllum|Hemiselmis virescens|Hendersonula toruloidea|Henriettella fascicularis|Heracleum granatense|Hernandia sonora|Hertia cheirifolia|Heteromma simplicifolium|Heteropsis integerrima|Heterothalamus spartioides|Heterotheca grandiflora|Hexabranchus sanguineus|Hexagonia speciosa|Himantoglossum hircinum|Hippasteria phrygiana|Hippobroma longiflora|Hippophae rhamnoides|Hippophae rhamnoides L.|Holarrhena floribunda|Holothuria squamifera|Homalium longifolium|Homo sapiens|Hordeum bulbosum|Hordeum vulgare|Hordeum vulgare L.cv Mammut|Hordeum vulgare var. distichon|Hornschuchia citriodora|Hortia brasiliana|Hortia superba|Hortonia floribunda|Hubertia tomentosa|Hultholia mimosoides|Humirianthera rupestris|Hunteria corymbosa|Hydnellum caeruleum|Hydnocarpus anthelminthicus|Hydnocarpus octandra|Hydrallmania falcata|Hydrangea chinensis|Hydrangea heteromalla|Hygrophila polysperma|Hygrophorus eburneus|Hymenaea courbaril|Hymenaea oblongifolia|Hymenea coubaril|Hyperbaena columbica|Hypericum caprifoliatum|Hypericum carinatum|Hypericum japonicum|Hypericum laricifolium|Hypericum oblongifolium|Hypericum reptans|Hyphochytrium catenoides|Hypogymnia vittata|Hypolepis punctata|Hypotrachyna quaesita|Hypoxis nyasica|Hypselodoris porterae|Hyrtios eubamma|Ibacus peronii|Idea leuconoe|Ilex brevicuspis|Ilex taubertiana|Illicium difengpi|Indigofera tetrantha|Inula britannica|Inula cappa|Inula japonica|Inula nervosa|Inula racemosa|Inula salsoloides|Inula viscosa|Iodes cirrhosa|Iotrochota purpurea|Iris ensata|Iris germanica L.|Iris nertchinskia|Iris pallida|Iris tenuifolia|Iryanthera coriacea|Iryanthera elliptica|Iryanthera juruensis|Iryanthera laevis|Iryanthera polyneura|Isaria cretacea|Isodon japonica|Isodon lophanthoides|Isodon loxothyrsus|Isodon trichocarpus|Isolona pilosa|Isoplexis chalcantha|Ixeris denticulata|Ixora chinensis|Jacobaea cannabifolia|Jacobaea maritima|Jacobaea vulgaris|Jasione montana|Jateorhiza palmata|Jatropha gossypiifolia|Jatropha integerrima|Jatropha weddelliana|Juglans regia|Junellia tridens|Juniperus brevifolia|Juniperus formosana|Juniperus rigida|Juniperus scopulorum|Jurinea albicaulis|Jurinea maxima|Justicia betonica|Justicia heterocarpa T.ANDERS|Kadsura heteroclita|Kalanchoe spathulata|Kalmia latifolia L.|Keiferia lycopersicella|Khaya anthotheca|Khaya ivorensis|Khaya senegalensis|Khaya senegalensis L.|Kielmeyera albopunctata|Kielmeyera excelsa|Kielmeyera rubriflora|Kingiella taenialis|Klaseopsis chinensis|Klebsiella pneumoniae|Knautia arvensis|Kochia trichophylla|Koelreuteria paniculata|Kopsia grandifolia|Kopsia longiflora|Kryptoperidinium foliaceum|Kyrsteniopsis dibollii|Laburnum watereri|Lactarius atroviridis|Lactarius sanguifluus|Lactarius subpiperatus|Lactobacillus delbrueckii subsp. bulgaricus|Lactococcus lactis|Laennecia sophiifolia (Kunth) G.L.Nesom|Laetiporus versisporus|Laggera alata|Laggera pterodonta|Lagochilus setulosus|Lanurocerasus officinalis|Larix kaempferi (Lamb.) Carr|Lasianthaea podocephala|Lasianthus gardneri|Lasianthus wallichii|Lasiosiphon kraussianus|Lathyrus aphaca|Lathyrus tingitanus|Launaea nudicaulis|Laurencia pacifica|Laurencia rigida|Laurentia longiflora|Leathesia nana|Lebeckia plukenetiana|Lecanora conizaeoides|Lecanora straminea|Lecidea carpathica|Leitneria floridana|Lens culinaris|Leonurus persicus|Lepechinia caulescens|Lepidiota negatoria|Lepidophorum repandum|Lepista irina|Lepraria citrina|Leptolyngbya lurida|Leptospermum recurvum|Lespedeza bicolor|Lespedeza cyrtobotrya|Lespedeza davidii|Lethasterias fusca|Leucanthemella serotina|Leucocarpus perfoliatus|Leucothoe grayana Max.|Libanotis intermedia|Licaria armeniaca|Licaria canella|Licaria chrysophylla|Licaria macrophylla|Licaria mahuba|Licaria puchury-major|Licaria rigida|Ligularia odontomanes|Ligusticum sinense|Ligusticum tenuissimum|Limnophila heterophylla|Limonium aureum|Lindera umbellata|Liparis nakaharai|Lissoclinum bistratum|Lithospermum canescens|Lithospermum officinale|Litsea lii|Litsea nitida|Litsea zeylanica|Littorina littorea|Lobaria oregana|Lobelia chinensis|Lobelia langeana|Lobophora variegata|Lobophytum cristatum|Lobophytum schoedei|Lomandra hastilis|Lomentaria catenata|Lonchocarpus urucu|Lonicera korolkovii|Lonicera macranthoides|Lonicera quinquelocularis|Loranthus falcatus|Lotus ucrainicus|Lotus villosus|Lucilia caesar|Lupinus cosentinii|Lupinus mutabilis|Lycium barbarum|Lycium chinense|Lycopodium paniculatum|Lycopus europaeus|Lygodium pinnatifidum|Lyngbya majuscula|Lyophyllum connatum|Lysimachia mauritiana|Macaranga sampsonii|Macaranga sinensis|Machilus odoratissima|Machilus robusta|Machilus thunbergii|Machilus zuihoensis|Macroclinidium robustum|Macrolobium bifolium|Macrozamia communis|Magnolia obovata|Malacosoma americanum|Malus sylvestris|Mamestra brassicae|Mammillaria coronata|Mammillaria magnimamma|Mangifera indica|Maprounea guianensis|Marchantia polymorpha|Markhamia stipulata|Marrubium anisodon|Massa hanshi fermentata|Matricaria suffruticosa|Maytenus buxifolia|Maytenus emarginata|Maytenus guianensis|Maytenus laevis|Maytenus loevis|Maytenus obtusifolia|Maytenus salicifolia|Melanelixia fuliginosa subsp. glabratula|Melastoma intermedium|Melia azedarach|Melia toosendan|Melianthus major|Melicope octandra|Melicope perspicuinervia|Melicope semecarpifolia|Meliosma lanceolata|Melissa officinalis|Meloidogyne incognita|Mentha canadensis|Mentha longifolia|Mercurialis leiocarpa|Mespilus germanica|Mesua elegans|Mesua ferrea|Metanarthecium luteoviride|Metarhizium indigoticum|Metatrichia vesparium|Methanosarcina barkeri|Methanothermobacter thermautotrophicus|Methylosinus trichosporium|Micromelum falcatum|Micromelum integerrimum|Microtropis fokienensis|Microtropis japonica|Mikania oblongifolia|Millettia brandisiana|Millettia conraui|Mimosa rubicaulis|Mirabilis jalapa|Mirabilis jalpa|Moghania macrophylla|Moghania strobilifera|Mollinedia costaricensis|Momordica charantia|Momordica cochinchinensis|Monanthotaxis trichocarpa|Monascus pilosus BCRC38072|Monomeria barbata|Montanoa guatemalensis|Morella cerifera|Morinda citrifolia|Morinda citrifolia L.|Morinda morindoides|Moringa oleifera|Morus insignis|Morus yunnanensis|Mucor hiemalis|Mucuna urens|Munronia delavayi|Mussaenda macrophylla|Mycale laxissima|Mycale tenuis|Mycena viridimarginata|Mycetia nutans|Myelobia smerintha|Myelochroa rhytidodes|Myoporum platycarpum|Myrianthus arboreus|Myristica argentea|Myristica malabarica|Naja naja|Narcissus concolor|Narcissus tazetta|Narcissus triandrus|Nardostachys jatamansi|Nasutitermes ephratae|Nauclea gambir|Nauclea officinalis|Nauclea orientalis|Naucleopsis caloneura|Nectandra miranda|Nectandra puberula|Neoboutonia glabrescens|Neoboutonia glabrescens Prain|Neoboutonia melleri|Neochamaelea pulverulenta|Neolitsea acuminatissima|Neolitsea dealbata|Neolitsea sericea|Neolitsea villosa|Nephthea pacifica|Nerium oleander|Neuraputia magnifica|Neurolaena macrophylla|Neurospora santi-florii|Newbouldia laevis|Nicotiana alata|Nicotiana benthamiana|Nonomuraea dietziae|Nothofagus pumilio|Notholaena lemmonii|Ochradenus baccatus|Ochrocarpos odoratus|Ocimum basilicum|Ocimum spicatum|Ocotea argyrophylla|Ocotea catharinensis|Ocotea macrophylla|Ocotea pretiosa|Olea capensis|Olea europaea|Oncorhynchus keta|Onobrychis bobrovii|Ononis viscosa|Oocystis polymorpha|Oophaga histrionica|Ophidiaster ophidianus|Ophiocoma echinata|Ophiocordyceps heteropoda|Ophiocordyceps sinensis|Ophiolepis superba|Ophiorrhiza liukiuensis|Oreaster nodosus|Oriciopsis glaberrima|Oriciopsis glaberrima ENGL.|Ormosia dasycarpa|Ormosia elata|Ormosia hosiei|Ornithogalum montanum|Orobanche coerulescens|Orthosiphon stamineus|Oscillatoria limosa|Oscillatoria princeps|Osmitopsis osmitoides|Ostericum grosseserratum|Otanthus maritimus|Otoba parvifolia|Otostegia fruticosa|Oxylobus arbutifolius|Oxytropis muricata|Oxytropis myriophylla|Ozoroa insignis|Ozothamnus obcordatus|Pachycereus tehuantepecanus|Pachygone dasycarpa|Pachyphragma macrophyllum|Paederia foetida|Paeonia lactiflora|Paeonia rockii|Panax ginseng|Panax innovans|Pandalus borealis|Panopsis sessilifolia|Panus rudis|Papaver glaucum|Papaver macrostomum|Papaver persicum|Papaver pseudocanescens|Papilio phorcas|Paramyrothecium roridum|Paranephelius uniflorus|Parastrephia lepidophylla|Pardachirus pavoninus|Parectatosoma mocquerysi|Parinari campestris|Parkia javanica|Parkinsonia aculeata|Parmelia damaziana|Parmelia gigas|Parmelia tinctina|Parmelia zollingeri|Passiflora morifolia|Pastinaca sativa|Patrinia scabiosifolia|Pecten irradians|Pectinophora gossypiella|Pedilanthus tithymaloides|Pelea madagascarica|Pellia epiphylla|Peltogyne confertiflora|Peltogyne venosa|Peltophorum dubium|Penicilliopsis clavariiformis|Penicillium abidjanum|Penicillium cinerascens|Penicillium daleae|Penicillium implicatum|Penicillium solitum|Penstemon confertus|Pentaceraster regulus|Pentzia calva|Peperomia heyneana|Perenniporia ochroleuca|Periconia atropurpurea|Perilla frutescens|Periploca aphylla|Periploca forrestii|Peritassa campestris|Persea americana|Persea mexicana|Persica vulgaris|Peschiera affinis|Pestalotiopsis guepinii|Pestalotiopsis virgatula|Petalostemon purpureum|Petasites georgicus|Petrosia corticata|Petrosia hebes|Petrosia similis|Petteria ramentacea|Petunia nyctaginiflora|Peucedanum alsaticum|Peucedanum oroselinum|Peyronellaea glomerata|Pfaffia iresinoides|Pfaffia pulverulenta|Pharbitis nil|Phascolosoma vulgare|Phebalium dentatum|Phebalium ozothamnoides|Phedimus kamtschaticus|Phegopteris subaurita|Phellodendron amurense|Phellodendron amurense var.wilsonii|Phellodendron chinense|Phellodendron japonicum MAXIM|Phenax angustifolius|Phleum africanum|Phlogacanthus thyrsiflorus|Phlogacanthus tubiflorus|Phlomis crinita|Phlomis regelii|Phoebe grandis|Pholidota yunnanensis|Phora atra|Phora gregaria|Phoradendron reichenbachianum|Phormia regina|Phormidium sp.|Phyllanthus niruri|Phyllanthus oligospermus|Phyllanthus reticulatus|Phyllidia ocellata|Phyllostachys edulis|Physalis sordida|Physarum polycephalum|Physocarpus intermedius|Physostigma venenosum|Phytolacca acinosa|Phytolacca dioica|Picea mariana|Picramnia antidesma|Picramnia latifolia|Pieris japonica D.Don.|Pilocarpus grandiflorus|Pimpinella thellungiana|Pinellia pedatisecta|Pinellia ternata|Pinus austriaca|Pinus edulis|Pinus sitchensis|Pinus taeda|Pinus thunbergii|Piper acutifolium|Piper acutisleginum|Piper aduncum|Piper arboreum|Piper attenuatum|Piper betle|Piper brachystachyum|Piper elongatum|Piper futokadsura|Piper hispidum|Piper khasiana|Piper marginatum|Piper nigrum|Piper nigrum L.|Piper pedicellosum|Piper peepuloides|Piper philippinum|Piper puberulum|Piper retrofractum|Piper retrofractum Vahl.|Piper sarmentosum|Piper solmsianum|Piper thomsoni|Piper umbellatum|Piper wallichii|Piptadenia macrocarpa|Pittosporum brevicalyx|Pittosporum tobira|Pittosporum viridiflorum|Plagiochila acanthophylla|Plagiomnium cuspidatum|Plakinastrella clathrata|Plakobranchus ocellatus|Plakortis lita|Plantago asiatica|Plantago cornuti|Plantago ovata|Plantago uniflora|Platymiscium praecox|Plazia daphnoides|Plectocephalus chilensis|Plectosphaerella cucumerina|Plectranthus hereroensis|Plectranthus lanuginosus|Plectranthus nummularius|Plectranthus rugosus|Plectranthus sylvestris|Pleione bulbocodioides|Pleione yunnanensis|Pleodendron costaricense|Pleurotus citrinopileatus|Pleurotus eryngii|Pleurotus ostreatus|Plexaurella grisea|Pluchea lanceolata|Pluchea sericea|Plumbago zeylanica|Pocillopora eydouxi|Podadenia thwaitesii|Podocarpus amarus|Podocarpus blumei|Podocarpus lambereis|Podocarpus sellowii|Podospora curvicolla|Pogostemon cablin|Poinsettia pulcherrima|Polyalthia longifolia var.pendula|Polycephalomyces nipponicus|Polygala aureocauda|Polygonum bistorta|Polypodium aureum|Polypodium decumanum|Polypodium vulgare|Polyporus confluens|Polytrichum commune|Poncirus trifoliata|Populus angustifolia|Populus pseudosimonii|Populus yunnanensis|Porophyllum riedelii|Portulaca oleracea|Portulaca pilosa|Posidonia australis|Posidonia oceanica|Postia guttulata|Potamogeton malaianus|Potentilla multifida|Pouzolzia occidentalis|Premna odorata|Primula denticulata|Prismatomeris tetrandra|Propylea quatuordecimpunctata|Prosopis glandulosa|Prosopis spicigera|Protohermes grandis|Prunella vulgaris|Prunus armeniaca|Prunus cerasoides|Prunus dulcis|Prunus mahaleb|Prunus mume|Prunus padus|Prunus persica|Prunus pseudocerasus|Prunus puddum|Prunus sibirica|Prunus ssiori|Pseudoalteromonas luteoviolacea|Pseudocedrela kotschyi|Pseudocyphellaria australiensis|Pseudocyphellaria coronata|Pseudocyphellaria rubella|Pseudomonas putida|Pseudomonas syringae|Pseudophegopteris subaurita|Pseudoscleropodium purum|Pseudotaxus chienii|Pseudotsuga japonica|Pseudotsuga sinensis var. wilsoniana|Pseudotsuga wilsoniana|Pseudowintera colorata|Pseudoxandra sclerocarpa|Pseuduvaria indochinensis|Psidium acutangulum|Psilotum nudum|Psoralea acaulis|Psychotria adenophylla|Psydrax livida|Ptelea crenulata|Pteridium aquilinum|Pteris pacifica|Pteris setuloso-costulata|Pteris wallichiana|Pterocarpus santalinus|Pterocaulon polystachyum|Pterodon apraricioi|Pterogyne nitens|Pteromys volans|Pteryxia terebinthina|Pulicaria mauritanica|Pullularia pullulans|Punica granatum|Pycnothymus rigidus|Pyrus bourgaeana|Pyrus pashia|Pyrus x bretschneideri|Qualea labouriauana|Quercus glauca Thunb.|Quercus imbricaria|Quercus laurifolia|Quercus myrsenaefolia|Quercus robur|Quercus stenophylla Makino.|Quercus suber|Rabdosia weisiensis|Ramalina hierrensis|Ramuius wallichii seu puberulii|Ranunculus bulbosus|Rathayibacter rathayi|Rauia resinosa|Rauvolfia salicifolia|Reissantia buchananii|Relhania acerosa|Reniera cratera|Reticulitermes flavipes|Rhamnus cathartica|Rhamnus saxatilis|Rheedia gardneriana|Rheum hotaoense|Rhinacanthus nasutus|Rhinella icterica|Rhizophagus intraradices|Rhizophora mangle|Rhizophora tagal|Rhizoplaca baranowii|Rhizopus japonicus|Rhizosolenia setigera|Rhodanthe maryonii|Rhodiola crenulata|Rhododendron aureum|Rhododendron campylocarpum|Rhododendron fulgens|Rhododendron macrophyllum|Rhododendron mucronulatum|Rhododendron ovatum|Rhododendron ponticum|Rhododendron veitchianum|Rhus sylvestris|Rhus wallichi|Rhyzophlyctis rosea|Robinsonecio gerberifolius|Roemeria refracta|Rogeria adenophylla|Rohdea wattii|Rosa mutiflora|Rothmannia macrophylla|Rothmannia urcelliformis|Rourea santaloides|Rubia cordifolia|Rubia cordifolia L.|Rubia wallichiana DECNE|Rubia yunnanensis|Rubrivivax gelatinosus|Rubus chingii|Rubus coreanus|Rubus ellipticus|Rubus foliolosus|Rubus idaeus|Rubus laciniatus|Rubus pileatus|Ruellia tuberosa|Rumex maritimus|Ruta microcarpa|Ruta pinnata|Sabal causiarum|Saccharothrix mutabilis subsp. capreolus|Saguinus oedipus|Salix sachalinensis|Salvia aegyptiaca|Salvia aethiopis|Salvia amplexicaulis Lam.|Salvia broussonetii|Salvia canariensis L.|Salvia dorrii|Salvia hispanica|Salvia horminum|Salvia hypargeia|Salvia kronenburgii|Salvia melissodora|Salvia miltiorrhiza|Salvia miniata|Salvia multicaulis|Salvia munzii|Salvia nicolsoniana|Salvia officinalis|Salvia parryi|Salvia polystachya|Salvia prionitis|Salvia syriaca L.|Sambucus canadensis|Sambucus nigra|Sandoricum koetjape|Sansevieria ehrenbergii|Santolina rosmarinifolia|Saposhnikovia divaricata|Saraca asoca|Sarcococca hookeriana|Sarcococca vagans|Sarcomyxa serotina|Sarcophyton latum|Sargentodoxa cuneata|Sarocladium zeae|Satureja montana|Saururus cernuus|Saussurea laniceps|Saussurea muliensis|Saussurea neopulchella|Saussurea triangulata|Saxidomus giganteus|Saxifraga stolonifera|Scabiosa comosa|Scabiosa soongorica|Scapania aequiloba|Schefflera bodinieri|Schisandra bicolor|Schisandra lancifolia|Schisandra propinqua|Schisandra sphaerandra|Schizanthus tricolor|Schleichera oleosa|Schleichera trijuga|Schnabelia tetradonta|Schrebera swietenoides|Scleropyrum wallichianum|Scopolia atropoides|Scorzonera laciniata|Scrophularia buergeriana|Scrophularia koelzii|Scrophularia leucoclada|Scrophularia ningpoensis|Scutellaria amoena|Scutellaria lateriflora|Securigera securidaca|Sedum forsteri|Sedum sarmentosum|Selaginella labordei|Selinum carvi|Selinum carvifolia|Senecio chionophilus|Senecio coahuilensis|Senecio densiflorus|Senecio gilliesi|Senecio glastifolius|Senecio grandiflorus|Senecio heliopsis|Senecio hygrophilus|Senecio madagascariensis|Senecio othonniformis|Senecio roseus|Senecio scandens|Senecio viravira|Senegalia catechu|Senna obtusifolia|Sequoia sempervirens|Serratula xeranthemoides|Sesamum orientale|Seseli tortuosum LBS.Eur.|Sesuvium portulacastrum|Severinia buxifolia|Shorea maranti|Sickingia rubra|Sida veronicaefolia|Sideritis argosphacelus|Sideritis argosphacelus var. spicata|Sideritis candicans var.eriocephala|Sideritis dasygnaphala|Sideritis discolor|Sideritis kuegleriana|Sideritis lotsyi|Sideritis lotsyi var. mascaensis|Sideritis perfoliata|Sideritis soluta|Sideritis tenoi|Siegesbeckia pubescens|Sigesbeckia glabrescens|Sigillina signifera|Simaba cuneata|Simplicillium lanosoniveum|Sinapis alba|Sinapis nigra|Sinomenium acutum|Sinopodophyllum hexandrum|Sinularia depressa|Sinularia inelegans|Sinularia leptoclados|Sinularia manaarensis|Siphonaria normalis|Siphonaria pectinata|Siphoneugena densiflora|Siphonoglossa sessilis|Sipunculus nudus|Skimmia japonica|Skimmia wallachii|Smilax china|Smilax glabra|Solanum americanum|Solanum andigena|Solanum arundo|Solanum asperum|Solanum chacoense Bitt.|Solanum curtipes|Solanum diflorum|Solanum euacanthum|Solanum glaucophyllum|Solanum laxum|Solanum lycopersicum|Solanum olgae|Solanum transcaucasicum|Solanum tuberosum|Solanum tuberosum L.|Solidago leavenworthii|Solidago petiolaris|Sonneratia alba|Sophora japonica|Sophora japonica L.|Sophora leachiana|Sophora viciifolia|Sordaria araneosa|Sparganium stoloniferum|Spartium junceum|Speranskia tuberculata|Sphaeranthus confertifolius|Sphaerella rubella|Spheciospongia vagabunda|Sphenoclea zeylanica|Spilanthes ocymifolia|Spiracantha cornifolia|Spiraea formosana|Spongia bilamellata|Spongionella gracilis|Stachys lavandulifolia|Stachys recta|Staehelina fruticosa|Stellaria dichotoma|Stellaria media|Stemodia foliosa|Stenocarpella maydis|Stephania sasakii|Stereocaulon azoreum|Stevia lemmoni|Stevia polycephala|Stevia serrata|Stizophyllum riparium|Stolonica socialis|Strachybotrys alternans|Streptococcus pneumoniae|Streptomyces anulatus|Streptomyces argenteolus|Streptomyces atratus|Streptomyces aurantiacus|Streptomyces avermectinius|Streptomyces caelestis|Streptomyces caespitosus|Streptomyces chryseus|Streptomyces erythrochromogenes|Streptomyces fradiae|Streptomyces globisporus|Streptomyces griseocarneus|Streptomyces maritimus|Streptomyces melanogenes|Streptomyces naraensis|Streptomyces netropsis|Streptomyces noursei|Streptomyces platensis|Streptomyces purpurogeneiscleroticus|Streptomyces ramocissimus|Streptomyces sclerotialus|Streptomyces sulfonofaciens|Streptomyces xanthochromogenes|Streptomyces xanthocidicus|Strobilomyces floccopus|Strophanthus hispidus|Strychnos aculeata|Strychnos amazonica|Strychnos dolychothyrsa|Strychnos fendleri|Strychnos henningsii|Strychnos nitida|Strychnos potatorum|Strychnos spinosa|Stylotrichium rotundifolium|Stypandra imbricata|Styrax ferrugineus|Styrax formosanus|Styrax japonicus|Suaeda maritima|Suillus bovinus|Swartzia simplex|Swertia franchetiana|Symphonia globulifera|Symphytum asperum|Symphytum tuberosum|Symplocos racemosa|Syncolostemon parviflorus|Syphonota geographica|Syzygium aromaticum|Syzygium samarangense|Tabernaemontana heterophylla|Tadorna ferruginea|Talaromyces helicus|Talinum fruticosum|Talipariti tiliaceum|Tambja ceutae|Tamus communis L.|Tanacetum balsamitoides|Tanacetum chiliophyllum|Tanacetum longifolium|Tapinoma erraticum|Taraxacum borealisinense|Taraxacum formosanum|Taraxacum platycarpum|Taricha granulosa|Taxodium lanceolata|Taxus baccata|Taxus brevifolia|Taxus canadensis|Taxus cuspidata|Taxus floridana|Taxus mairei|Taxus wallichiana|Tecoma pentaphylla|Tephroseris kirilowii|Tephrosia bidwilli|Tephrosia bracteolata|Tephrosia egregia|Tephrosia odorata|Tephrosia purpurea|Terminalia superba|Ternstroemia gymnanthera|Tessaria dodoneaefolia|Tetracentron sinense|Tetradium glabrifolium|Teucrium alyssifolium|Teucrium fragile|Teucrium nuchense|Teucrium orientale|Teucrium pilosum|Thalictrum pubescens|Thalysias juniperina|Thelepus setosus|Theobroma grandiflorum|Theobroma sylvestre|Theonella cupola|Thermopsis mollis|Thevetia peruviana|Thielavia terricola|Thuja dolabrata|Thymus piperella|Thynnus thynnus|Thyrsanospermum diffusum|Tichocarpus crinitus|Tipuana tipu|Tithonia rotundifolia|Tolypocladium ophioglossoides|Tolypothrix byssoidea|Toona ciliata|Tornabea scutellifera|Torreya grandis|Tovomita brasiliensis|Trachelospermum lucidum|Tragopogon orientalis|Trapa bicornis|Trattinnickia rhoifolia|Tribulus alatus|Tribulus terrestris|Tricalysia okelensis|Trichilia claussenii|Trichilia estipulata|Trichilia havanensis|Trichilia hirta|Trichilia lepidota|Trichilia rubescens|Trichoderma citrinum|Trichoderma vinosum|Trichosanthes Kirilowi|Trichosanthes kirilowii|Trichosanthes rosthornii|Tridentata marginata|Trifolium hybridum|Trifolium montanum|Trifolium strepens|Triglochin maritima|Trigonella foenum-graceum|Trikentrion flabelliforme|Tripterygium hypoglaucum|Triticum spp.|Triunia erythrocarpa|Tsitsikamma favus|Tuber melanosporum|Tulipa sylvestris|Tupistra chinensis|Tydemania expeditionis|Tylophora tanakae|Tylopilus neofelleus|Typha angustifolia|Typha domingensis|Typha orientalis|Udotea petiolata|Ulva lactuca|Umbilicaria cinereorufescens|Uncaria macrophylla|Uncaria sinensis|Ungernia minor|Ungernia victoris|Urceolaria bryophila|Urceolaria scruposa|Uresiphita reversalis|Ursinia anthemoides|Urtica fissa|Urtica triangularis|Uruparia pilosa|Utricularia vulgaris|Uvaria kirkii|Uvaria lucida|Vallaris heynei|Vatica cinerea|Vatica oblongifolia|Vellozia piresiana|Vellozia streptophylla|Veltheimia viridifolia|Venidium hirsutum|Veratrum eschscholtzii|Verbascum spinosum|Verbena brasiliensis VELL|Verbesina luetzelburgii|Vernonanthura chamaedrys|Vernonia aurea|Vernonia chloropappa|Vernonia fasciculata|Vernonia leopoldi|Vernonia lilacina|Vernonia scorpioides|Vernonia tufnellae|Veronica austriaca|Veronica cupressoides|Veronica liwanensis|Vibrio fluvialis|Viburnum davidii|Vicoa vestita|Viguiera dentata|Viguiera incana|Viguiera oblongifolia|Viguiera pinnatilobata|Vincetoxicum versicolor|Viola formosana|Viola odorata|Virola caducifolia|Virola carinata|Virola divergens|Virola melinonii|Virola multinervia|Virola pavonis|Virola surinamensis|Virola venosa|Viscum album|Viscum coloratum|Vismia cayennensis|Vismia japurensis|Vitex trifolia|Vitis vinifera|Vladimiria muliensis|Vouacapoua macropetala|Vouacapoua pallidior|Vulpicida juniperinus|Walsura chrysogyne|Watersipora cucullata|Wedelia prostrata|Wikstroemia chamaedaphne|Wikstroemia retusa|Withania somnifera|Witheringia solanacea|Woodsia manchuriensis|Wulfenia orientalis|Xanthium canadense|Xanthium strumarium|Xerotus discolor|Xylonagra arborea|Xylopia aethiopica|Xylopia aromatica|Xylosalsola arbuscula|Xyris pterygoblephara|Yucca gloriosa|Zaluzania grayana|Zantedeschia aethiopica|Zanthoxylum acutifolium|Zanthoxylum bungeanum|Zanthoxylum capense|Zanthoxylum chiloperone|Zanthoxylum culantrillo|Zanthoxylum integrifoliolum|Zanthoxylum monophyllum|Zanthoxylum myriacanthum|Zanthoxylum nitidum|Zanthoxylum petiolare|Zanthoxylum podocarpum Hemsl.|Zanthoxylum rhoifolium|Zanthoxylum simulans|Zanthoxylum tetraspermum|Zanthoxylum wutaiense|Zea mays|Zephyranthes flava|Zerynthia polyxena|Zingiber aromaticum|Zingiber officinale

>  <collections>  (50) 
ANPDB|AnalytiCon Discovery NPs|Australian natural products|BIOFACQUIM|CMAUP (cCollective molecular activities of useful plants)|ChEBI NPs|ChemSpider NPs|DrugBankNP|EMNPD|FooDB|GNPS (Global Natural Products Social Molecular Networking)|KNApSaCK|Latin America dataset|NANPDB (Natural Products from Northern African Sources)|NPACT|NPASS|NPEdia|NuBBEDB|Phyto4Health|SANCDB|Specs Natural Products|Super Natural II|TCMDB-Taiwan (Traditional Chinese Medicine database)|TIPdb (database of Taiwan indigenous plants)|VietHerb

>  <dois>  (50) 
10.1002/hlca.200790187|10.1007/s003940050048|10.1016/0031-9422(73)80031-7|10.1016/0031-9422(73)80047-0|10.1016/0031-9422(73)80421-2|10.1016/0031-9422(73)85045-9|10.1016/0031-9422(73)85046-0|10.1016/0031-9422(74)80100-7|10.1016/0031-9422(74)80105-6|10.1016/0031-9422(74)80252-9|10.1016/0031-9422(74)85041-7|10.1016/0031-9422(75)80372-4|10.1016/0031-9422(75)85047-3|10.1016/0031-9422(75)85051-5|10.1016/0031-9422(75)85143-0|10.1016/0031-9422(75)85303-9|10.1016/0031-9422(75)85305-2|10.1016/0031-9422(75)85324-6|10.1016/0031-9422(75)85358-1|10.1016/0031-9422(75)85390-8|10.1016/0031-9422(80)83082-2|10.1016/0031-9422(81)84045-9|10.1016/0031-9422(81)84067-8|10.1016/0031-9422(81)84071-X|10.1016/0031-9422(81)85112-6|10.1016/0031-9422(81)85172-2|10.1016/0031-9422(91)83479-5|10.1016/0031-9422(92)80374-N|10.1016/0031-9422(92)83738-K|10.1016/0031-9422(92)90048-U|10.1016/0031-9422(95)00093-3|10.1016/0031-9422(95)00368-H|10.1016/0031-9422(95)00969-8|10.1016/0305-1978(88)90060-9|10.1016/0305-1978(92)90104-L|10.1016/0305-1978(94)90107-4|10.1016/S0031-9422(00)00225-9|10.1016/S0031-9422(00)80173-9|10.1016/S0031-9422(00)80444-6|10.1016/S0031-9422(00)81526-5|10.1016/S0031-9422(00)84396-4|10.1016/S0031-9422(00)85161-4|10.1016/S0031-9422(00)85714-3|10.1016/S0031-9422(00)86395-5|10.1016/S0031-9422(00)88489-7|10.1016/S0031-9422(00)88692-6|10.1016/S0031-9422(00)88765-8|10.1016/S0031-9422(00)88971-2|10.1016/S0031-9422(00)89245-6|10.1016/S0031-9422(00)89350-4|10.1016/S0031-9422(00)89656-9|10.1016/S0031-9422(00)89849-0|10.1016/S0031-9422(00)89891-X|10.1016/S0031-9422(00)89914-8|10.1016/S0031-9422(00)91124-5|10.1016/S0031-9422(00)91467-5|10.1016/S0031-9422(00)94227-4|10.1016/S0031-9422(00)94260-2|10.1016/S0031-9422(00)94440-6|10.1016/S0031-9422(00)97240-6|10.1016/S0031-9422(00)98552-2|10.1016/S0031-9422(00)98664-3|10.1016/S0031-9422(03)00006-2|10.1016/S0031-9422(82)85050-4|10.1016/S0031-9422(96)00747-9|10.1016/S0031-9422(97)00140-4|10.1016/S0031-9422(97)00167-2|10.1016/j.bmc.2007.10.072|10.1016/j.bmc.2010.01.010|10.1016/j.bmcl.2009.04.129|10.1016/j.bmcl.2010.12.025|10.1016/j.bmcl.2011.02.003|10.1016/j.bmcl.2013.03.007|10.1016/j.bse.2005.10.012|10.1016/j.clnu.2005.01.001|10.1016/j.foodres.2020.109416|10.1016/j.jep.2010.11.057|10.1016/j.sajb.2011.09.001|10.1016/s0031-9422(98)00092-2|10.1021/acs.jnatprod.5b00858|10.1021/acs.jnatprod.8b00079|10.1021/acs.jnatprod.9b00363|10.1021/acs.jnatprod.9b00674|10.1021/jf071801p|10.1021/np030034v|10.1021/np030241v|10.1021/np030556a|10.1021/np0496845|10.1021/np060284m|10.1021/np060500r|10.1021/np070038q|10.1021/np100373f|10.1021/np100440p|10.1021/np100531x|10.1021/np100566v|10.1021/np1008575|10.1021/np100874f|10.1021/np100896w|10.1021/np100902f|10.1021/np100923z|10.1021/np2000914|10.1021/np200279r|10.1021/np2002918|10.1021/np800001v|10.1021/np800097t|10.1021/np900068t|10.1021/np900305j|10.1038/s41598-022-14381-w|10.1051/CTV/20163101031|10.1071/ch9570480|10.1071/ch9630491|10.1080/02652030701216727|10.1080/14786410802214009|10.1111/1750-3841.15463|10.1155/2017/2840718|10.1590/1809-43921982123668|10.1590/1809-43921982124801|10.1590/1809-43921983132409|10.1590/1809-43921984143453|10.1590/S0100-40422008000400005|10.1590/S0100-40422009000800010|10.1590/S0100-40422010001000014|10.1590/S0100-40422010001000024|10.1590/S0100-40422012001100004|10.1590/S0100-46702002000100009|10.1590/S0102-695X2006000200006|10.1590/S0103-50532001000300014|10.1590/S0103-50532002000300014|10.1590/S0103-50532004000300008|10.1590/S0103-50532005000800007|10.1590/S0103-50532006000200010|10.1590/S1516-89132011000100008|10.3390/foods9060770|10.3390/molecules190812031|10.3390/molecules23123219|10.3390/molecules27020483|10.3998/ark.5550190.0005.606|10.4067/S0717-97072009000300004|10.4103/0974-8490.102269|10.5650/jos.ess19091|10.5650/jos.ess20128|10.5650/jos.ess21076

>  <synonyms>  (50) 
Sitosterol|83-46-5|Cupreol|Azuprostat|Quebrachol|22|23-Dihydrostigmasterol|Cinchol|Triastonal|Rhamnol|beta-Sitosterin|Nimbosterol|Prostasal|alpha-Dihydrofucosterol|Harzol|(-)-beta-Sitosterol|Sito-Lande|24alpha-Ethylcholesterol|beta Sitosterol|Stigmast-5-en-3beta-ol|(24R)-Ethylcholest-5-en-3beta-ol|alpha-Phytosterol|Angelicin (steroid)|sitosterin|(3beta)-Stigmast-5-en-3-ol|Betaprost|Sobatum|(24R)-Stigmast-5-en-3beta-ol|Beta-sistosterol|SITOSTEROL| BETA-|SKF 14463|CHEBI:27693|NSC8096|Stigmast-5-en-3-ol| (3beta)-|UNII-S347WMO6M4|Phytosterol|delta5-Stigmasten-3-beta-ol|CCRIS 5529|S347WMO6M4|DTXSID5022481|Stigmasterol| 22|23-dihydro-|EINECS 201-480-6|NSC 18173|NSC-18173|NSC-49083|AI3-26020|CHEMBL221542|DTXCID802481|.beta.-Sitosterol|Sitosterol| .beta.|SITOSTEROL (MART.)|SITOSTEROL MART.|BETA-SITOSTEROL (USP-RS)|MFCD00003631|5-Stigmasten-3beta-ol|(3S|8S|9S|10R|13R|14S|17R)-17-(2R|5R)-5-ethyl-6-methylheptan-2-yl-10|13-dimethyl-2|3|4|7|8|9|11|12|14|15|16|17-dodecahydro-1H-cyclopentaaphenanthren-3-ol|SR-05000002307|Beta-Sitosterol (purity>98%)|b-Sitosterin|beta-Phytosterol|ss--Sitosterol|I2-sitosterol|CAS-83-46-5|NCGC00095716-01|Beta-Sitosterol-2|Harzol (TN)|Prestwick0_000985|b-Sitosterol (Synthetic)|Delta5-Stigmasten-3b-ol|beta-Sitosterol| >=70%|Beta-sitosterol WHO-DD|BIDD:PXR0121|SCHEMBL16105|BSPBio_001049|5-cholesten-24-ethyl-3-ol|BIDD:ER0636|SPBio_002950|BETA-SITOSTEROL INCI|BPBio1_001155|MEGxp0_001710|BETA SITOSTEROL VANDF|.BETA.-SITOSTEROL MI|ACon1_000287|CHEBI:176889|HMS1571E11|HMS2098E11|beta-Sitosterol| analytical standard|Tox21_111514|BDBM50218197|beta-Sitosterol| synthetic| >=95%|LMST01040129|NSC821067|s2273|AKOS005267194|delta(SUP 5)-STIGMASTEN-3beta-OL|AT37227|BETA-SITOSTEROL| 40% (HPLC)|CCG-208334|DB14038|beta-Sitosterol| from soybean| >=96%|SMP1_000274|NCGC00142598-02|(3.BETA.)-STIGMAST-5-EN-3-OL|14-((1S|4R)-4-ethyl-1|5-dimethylhexyl)(1S|5S|10S|11S|2R|14R|15R)-2|15-dimethyl tetracyclo8.7.0.0<2|7>.0<11|15>heptadec-7-en-5-ol|1ST40101|AC-24183|NCI60_041777|AB00513984|NS00078818|S0040|beta-SITOSTEROL (CONSTITUENT OF PYGEUM)|.DELTA.(SUP 5)-STIGMASTEN-3.BETA.-OL|C01753|D08518|24beta-ETHYL-delta(SUP 5)-CHOLESTEN-3beta-OL|A840577|alpha-Dihydrofucosterol| 22|23-Dihydrostigmasterol|Q-200712|BETA-SITOSTEROL (CONSTITUENT OF SAW PALMETTO)|Corn sterilized quantitative extract (beta sitosterol)|Q63409374|.BETA.-SITOSTEROL (CONSTITUENT OF PYGEUM) DSC|BETA-SITOSTEROL (CONSTITUENT OF STINGING NETTLE)|BETA-SITOSTEROL|  inverted exclamation markY 98% (HPLC)|beta-Sitosterol| analytical standard| from soybean| >=40%|beta-Sitosterol| primary pharmaceutical reference standard|24.BETA.-ETHYL-.DELTA.(SUP 5)-CHOLESTEN-3.BETA.-OL|Beta-sitosterol| European Pharmacopoeia (EP) Reference Standard|-Sitosterol (purity>98%);22|23-Dihydrostigmasterol (purity>98%)|beta-Sitosterol| United States Pharmacopeia (USP) Reference Standard|beta-Sitosterol| certified reference material| 100 mug\/mL in chloroform|17-(5-ethyl-6-methyl-heptan-2-yl)-10|13-dimethyl-2|3|4|7|8|9|11|12|14|15|16|17-dodecahydro-1H-cyclopentaaphenanthren-3-ol|76772-70-8|beta-SITOSTEROL (CONSTITUENT OF ECHINACEA ANGUSTIFOLIA ROOT| ECHINACEA PALLIDA ROOT| ECHINACEA PURPUREA ROOT AND ECHINACEA PURPUREA AERIAL PARTS)|b-sitosterol|\u221a\u00e9\u00ac\u2264-Sitosterol|steroid|stigmast-5-ene-3_-ol

>  <cas>  (50) 
83-46-5|76772-70-8

$$$$

     RDKit          2D

 11 11  0  0  0  0  0  0  0  0999 V2000
   -3.8254    0.0221    0.0000 C   0  0  0  0  0  0  0  0  0  0  0  0
   -2.3278    0.1061    0.0000 C   0  0  0  0  0  0  0  0  0  0  0  0
   -1.6517    1.4450    0.0000 C   0  0  0  0  0  0  0  0  0  0  0  0
   -0.1540    1.5290    0.0000 C   0  0  0  0  0  0  0  0  0  0  0  0
    0.6675    0.2740    0.0000 C   0  0  0  0  0  0  0  0  0  0  0  0
    2.1652    0.3579    0.0000 C   0  0  0  0  0  0  0  0  0  0  0  0
    2.9867   -0.8971    0.0000 C   0  0  0  0  0  0  0  0  0  0  0  0
    2.8413    1.6969    0.0000 C   0  0  0  0  0  0  0  0  0  0  0  0
   -0.0086   -1.0650    0.0000 C   0  0  0  0  0  0  0  0  0  0  0  0
    0.8129   -2.3200    0.0000 O   0  0  0  0  0  0  0  0  0  0  0  0
   -1.5062   -1.1490    0.0000 C   0  0  0  0  0  0  0  0  0  0  0  0
  1  2  1  0
  2  3  2  0
  3  4  1  0
  4  5  2  0
  5  6  1  0
  6  7  1  0
  6  8  1  0
  5  9  1  0
  9 10  1  0
  9 11  2  0
 11  2  1  0
M  END
>  <identifier>  (51) 
CNP0135128.0

>  <canonical_smiles>  (51) 
CC1=CC=C(C(C)C)C(O)=C1

>  <standard_inchi>  (51) 
InChI=1S/C10H14O/c1-7(2)9-5-4-8(3)6-10(9)11/h4-7,11H,1-3H3

>  <standard_inchi_key>  (51) 
MGSRCZKZVOBKFT-UHFFFAOYSA-N

>  <name>  (51) 
THYMOL

>  <iupac_name>  (51) 
2-isopropyl-5-methyl-phenol

>  <annotation_level>  (51) 
5

>  <total_atom_count>  (51) 
25

>  <heavy_atom_count>  (51) 
11

>  <molecular_weight>  (51) 
150.22

>  <exact_molecular_weight>  (51) 
150.10447

>  <molecular_formula>  (51) 
C10H14O

>  <alogp>  (51) 
2.82

>  <topological_polar_surface_area>  (51) 
20.23

>  <rotatable_bond_count>  (51) 
1

>  <hydrogen_bond_acceptors>  (51) 
1

>  <hydrogen_bond_donors>  (51) 
1

>  <hydrogen_bond_acceptors_lipinski>  (51) 
1

>  <hydrogen_bond_donors_lipinski>  (51) 
1

>  <lipinski_rule_of_five_violations>  (51) 
0

>  <aromatic_rings_count>  (51) 
1

>  <qed_drug_likeliness>  (51) 
0.65

>  <formal_charge>  (51) 
0

>  <fractioncsp3>  (51) 
0.40

>  <number_of_minimal_rings>  (51) 
1

>  <van_der_walls_volume>  (51) 
157.87

>  <contains_sugar>  (51) 
False

>  <contains_ring_sugars>  (51) 
False

>  <contains_linear_sugars>  (51) 
False

>  <murcko_framework>  (51) 
c1ccccc1

>  <np_likeness>  (51) 
0.35

>  <chemical_class>  (51) 
Prenol lipids

>  <chemical_sub_class>  (51) 
Monoterpenoids

>  <chemical_super_class>  (51) 
Lipids and lipid-like molecules

>  <direct_parent_classification>  (51) 
Aromatic monoterpenoids

>  <np_classifier_pathway>  (51) 
Terpenoids

>  <np_classifier_superclass>  (51) 
Monoterpenoids

>  <np_classifier_class>  (51) 
Menthane monoterpenoids

>  <np_classifier_is_glycoside>  (51) 
False

>  <organisms>  (51) 
Abrus pulchellus|Aceriphyllum rossii|Achillea pannonica|Acmella ciliata|Acorus tatarinowii|Agastache rugosa|Agnorhiza bolanderi|Alangium premnifolium|Aletris farinosa|Alicyclobacillus acidocaldarius|Alligator mississippiensis|Alloascoidea hylecoeti|Amomum compactum|Amomum krervanh|Amphimedon terpenensis|Anaxagorea clavata|Anchusa strigosa|Anemopsis californica|Angelica pubescens|Angelica pubescens f.biserrata|Angelica tarokoensis|Annulusmagnus triseptatus|Anthemis aciphylla BOISS.var.discoidea BOISS|Anthocercis genistoides|Aphanamixis polystachya|Araujia sericifera|Aria pallescens|Armillaria tabescens|Arnica nevadensis|Artemisia annua|Artemisia capillaris|Artemisia monogyna|Asarum heterotropoides|Asarum sieboldii|Asclepias speciosa|Ascocoryne sarcoides|Asiasarum heterotropoides|Asiasarum sieboldii|Astilbe odontophylla|Atractylodes lancea|Baccharis dracunculifolia|Baeckea frutescens L.|Barbarea vulgaris subsp. arcuata|Bassia butyracea|Berteroa incana|Beyeria brevifolia|Bombax ceiba|Boronia bipinnata|Bragantia wallichii|Brucea mollis|Bupleurum chinense|Bursaria spinosa|Calea hispida|Callicarpa bodinieri|Carissa opaca|Casearia esculenta|Catha edulis|Centaurea bornmuelleri|Centranthus longiflorus ssp. longiflorus|Chloranthus tianmushanensis|Chresta sphaerocephala|Chromolaena odorata|Chromolaena pulchella|Chrysanthemum indicum|Chrysanthemum morifolium|Chrysanthemum viscidehirtum|Chrysanthemum x morifolium|Chrysanthemum zawadskii|Cinnamomum aromaticum|Cirsium microspicatum|Citrullus lanatus|Citrus aurantiifolia|Citrus maxima|Citrus reticulata|Citrus reticulate|Citrus sinensis|Citrus sinensis L.|Citrus unshiu|Cladonia evansii|Cladonia gonecha|Clematis chinensis|Clonostachys rosea|Coccus fagi|Colobocentrotus atratus|Coriandrum sativum|Coridothymus capitatus|Cornulaca monacantha|Corydalis flabellata|Corydalis stricta|Crocus asturicus|Cryptocarya triplinervis|Curcuma amanda Roxb|Curcuma kwangsiensis|Curcuma phaeocaulis|Curcuma wenyujin|Curcuma zedoaria|Cyerce cristallina|Daucus carota|Delphinium andersoni|Dendrosenecio kilimanjari|Dichapetalum madagascariense|Dimocarpus fumatus|Diospyros crassiflora|Diphasia angolensis|Dipterocarpus alatus|Dolomiaea souliei|Doriopsilla albopunctata|Dracocephalum moldavicum|Drosera peltata|Duboisia myoporoides|Echinops amplexicaulis|Echites hirsuta|Elettaria cardamomum|Elsholtzia ciliata|Elsholtzia splendens|Epaltes gariepina|Ephedra sinica|Epimedium davidii|Epimedium versicolor|Eremophila oppositifolia|Erica carnea|Erysimum odoratum|Eucalyptus polybractea|Eupatorium fortunei|Eupatorium pauciflorum|Euphorbia officinarum subsp. echinus|Eupolyphaga sinensis|Eusynstyela misakiensis|Eutypella scoparia|Fagara ailanthoides|Fagara leprieurii|Ficus formosana|Flacourtia inermis|Frullania tamarisci|Fusarium gibbosum|Galenia africana|Gardenia fosbergii|Globba malaccensis|Gnidia lamprantha|Helenium alternifolium|Heterotheca inuloides|Hofmeisteria schaffneri|Homo sapiens|Houttuynia cordata|Humulus japonicus|Huperzia lucidula|Hydnocarpus venenata|Hyssopus officinalis|Ilex affinis|Ilex amara|Inula nervosa|Isodon japonicus|Isodon kameba|Juglans nigra|Justicia ghiesbreghtiana|Kaempferia pulchra|Knightia excelsa|Labiatae|Lactarius scrobiculatus|Lamiaceae|Laurencia distichophylla|Laurilia sulcata|Leonurus glaucescens|Lepidium draba|Ligusticum chuanxiong|Ligusticum sinense|Linum capitatum|Lippia alnifolia|Lippia chevalieri|Lippia multiflora|Lycopodium casuarinoides|Lycopodium fawcettii|Lysimachia clethroides|Maba buxifolia|Machilus acuminatissima|Macleaya cordata|Maesopsis eminii|Magnolia liliflora|Magnolia liliiflora|Mammea suriga|Manilkara hexandra|Medicago truncatula|Mentha arvensis|Mentha canadensis|Mentha spicata|Mespilodaphne pretiosa|Micromeria pineolens|Mimosa tenuiflora|Monarda punctata|Moringa stenopetala|Mosla chinensis|Mourera fluviatilis|Murraya exotica|Murraya paniculata|Mycale cecilia|Nemalion vermiculare|Nidula candida|Nigella sativa L|Ocimum basilicum|Ocimum spp.|Odixia angusta|Oldenlandia diffusa|Oleum ocimi gratissimi|Ophiocoma scolopendrina|Origanum onites|Origanum vulgare|Origanum vulgaris|Paederia scandens|Paeonia delavayi|Paeonia veitchii|Paepalanthus robustus|Parmelia pseudoreticulata|Pecten jacobaeus|Peltigera canina|Penicillium citreonigrum|Penstemon acuminatus|Pericarpium citri|Pericarpium citri reticulatae|Pericarpium citri reticulatae viride|Pertusaria communis|Phaulopsis imbricata|Pheidole pallidula|Phialocephala fortinii|Phyllanthus emblica|Physcia aegialita|Pimenta dioica|Piper crassinervium|Piper sintenense|Polygala crotalarioides|Polyopes affinis|Portulaca okinawensis|Prosopis glandulosa|Prunus laurocerasus|Prunus persica|Pseudodistoma megalarva|Pseudopterogorgia kallos|Pteris palmiformis|Pteris prolifera|Pterocarpus grandiflorus|Ptychotis ajowan|Pyracantha fortuneana|Pyrosoma giganteum|Pyrrosia davidii|Pyura sacciformis|Quercus aegilops|Quercus sessiliflora|Radix chuanxiong|Radix smilacis|Rhizobium phaseoli|Rhizoma chuanxiong|Rhodiola rosea L.|Ricciocarpos natans|Robinia pseudoacacia|Rumphella aggregata|Salacia madagascariensis|Salvia officinalis|Sambucus nigra|Sarcophyton glaucum|Satureja montana|Satureja thymbra|Saussurea carthamoides|Saussurea lappa|Scutellaria barbata|Scutellaria lateriflora|Scutellaria violacea|Securidaca inappendiculata|Senecio squalidus|Senegalia tenuifolia|Senna alexandrina|Senna sophera|Seriphidium cinum|Sesbania punicea|Simira eliezeriana|Solanum acaule|Spirastrella inconstans|Spodoptera eridania|Spongia maynardii|Stenostomum lucidum|Stereocaulon ramulosum|Stevia satureiaefolia|Stillingia sanguinolenta|Streptomyces althioticus|Streptomyces griseovariabilis|Stypopodium flabelliforme|Swertia delavayi|Syringa komarowi|Syzygium aromaticum|Tanacetum annuum|Taraxacum udum|Taxodium mucronatum|Teucrium luteum|Teucrium trifidum|Thalictrum fortunei|Thermotoga maritima|Thymus X-porlock|Thymus eriocalyx|Thymus magnus|Thymus piperella|Thymus quinquecostatus|Thymus quiquecostatus|Thymus serpyllum|Thymus vulgaris|Thymus vulgaris L.|Torulopsis magnoliae|Trachyspermum ammi|Trapa bispinosa|Tricholoma scalpturatum|Trifolium medium|Trypetheliopsis boninensis|Uncaria glabrata|Uvaria chamae|Vaccinium vitis-idaea|Vallota purpurea|Vernonia angulifolia|Viburnum fur|Vismia jefensis|Vitex madiensis|Xenia puertogalerae|Zea mays

>  <collections>  (51) 
ANPDB|AnalytiCon Discovery NPs|Australian natural products|BIOFACQUIM|CMAUP (cCollective molecular activities of useful plants)|ChEBI NPs|DrugBankNP|ETM (Ethiopian Traditional Medicine) DB|FooDB|InflamNat|InterBioScreen Ltd|KNApSaCK|Latin America dataset|NANPDB (Natural Products from Northern African Sources)|NPACT|NPASS|NPEdia|NuBBEDB|Phenol-explorer|Phyto4Health|PubChem NPs|ReSpect|Super Natural II|TCMDB-Taiwan (Traditional Chinese Medicine database)|TCMID (Traditional Chinese Medicine Integrated Database)|TIPdb (database of Taiwan indigenous plants)|TPPT (Toxic Plants–PhytoToxins)|UEFS (Natural Products Databse of the UEFS)|UNPD (Universal Natural Products Database)|VietHerb|Watermelon|ZINC NP

>  <dois>  (51) 
10.1002/9780470744307.gat218|10.1002/biuz.19840140514|10.1016/S0367-326X(00)00154-4|10.1016/j.jep.2010.07.009|10.1017/s0022149x00033812|10.1021/np50017a018|10.1088/1752-7155/8/1/014001|10.1093/pcp/pcn183|10.1111/j.1469-8137.2006.01842.x|10.3109/10408447709082600|10.3109/1547691x.2015.1029145

>  <synonyms>  (51) 
89-83-8|2-Isopropyl-5-methylphenol|Thyme camphor|5-Methyl-2-isopropylphenol|3-p-Cymenol|6-Isopropyl-m-cresol|5-Methyl-2-(1-methylethyl)phenol|Thymic acid|3-Hydroxy-p-cymene|Isopropyl cresol|m-Thymol|p-Cymen-3-ol|Phenol| 5-methyl-2-(1-methylethyl)-|5-methyl-2-(propan-2-yl)phenol|Apiguard|p-Cymene| 3-hydroxy-|m-Cresol| 6-isopropyl-|1-Hydroxy-5-methyl-2-isopropylbenzene|2-Hydroxy-1-isopropyl-4-methylbenzene|Thymol (natural)|Cymophenol| alpha-|FEMA No. 3066|THYMOLUM|1-Methyl-3-hydroxy-4-isopropylbenzene|Caswell No. 856A|FEMA Number 3066|Phenol| 2-isopropyl-5-methyl-|IPMP|NSC 11215|CCRIS 7299|HSDB 866|EINECS 201-944-8|NSC-11215|NSC-47821|NSC-49142|EPA Pesticide Chemical Code 080402|UNII-3J50XA376E|DTXSID6034972|CHEBI:27607|AI3-00708|3J50XA376E|CHEMBL29411|DTXCID4014972|EC 201-944-8|MFCD00002309|NCGC00159373-02|THYMOL (USP-RS)|THYMOL USP-RS|THYMOL (MART.)|THYMOL MART.|THYMOL (EP MONOGRAPH)|WLN: QR C1 FY1&1|CAS-89-83-8|Thymol; 5-Methyl-2-(methylethyl)phenol|Thymol JAN:NF|Thymate|Thergy|Influenza Care|Common Colds|Acne Vanish|Acute Bronchitis|FLE Disinfectant|Thymol| puriss.|Chronic Bronchitis|Thymol & propolis|Thymol (TN)|Thymol|(S)|Common Colds Synergy|thymol crystal puriss|Thymol| FCC| FG|Influenza Care Synergy|THYMOLUM HPUS|Acute Bronchitis Synergy|Thymol (JP17\/NF)|THYMOL VANDF|THYMOL FHFI|THYMOL HSDB|THYMOL INCI|THYMOL FCC|THYMOL JAN|THYMOL WHO-DD|THYMOL MI|Chronic Bronchitis Synergy|FLE Antibacterial Solution|Thymol| analytical standard|Thymol| >=98.5%|SCHEMBL22165|MLS001074692|BIDD:ER0658|Benefect Natural Hand Sanitizer|GTPL2499|1e06|HMS2267P15|HY-N6810|Tox21_111613|Tox21_300358|BBL011604|BDBM50240432|s5157|STK397445|Thymol| tested according to Ph.Eur.|AKOS000119786|CCG-266209|DB02513|KS-5170|LMPR0102090029|MB00129|Thymol| SAJ first grade| >=98.0%|NCGC00254459-01|AC-34742|Acne Vanish Synergyfor treatment of Acnes|SMR000471893|DB-002030|CS-0008421|M0410|NS00006694|EN300-17999|C09908|Cleanwell Natural Orange Vanilla Hand Sanitizer|Cleanwell Natural Original Hand Sanitizer Wipes|D01039|Thymol| primary pharmaceutical reference standard|A845314|A861043|AE-562\/43461428|Q408883|SR-01000763796|W-100357|Thymol| Standard for quantitative NMR| TraceCERT(R)|Z57127464|BENZENE|2-HYDROXY|1-ISOPROPYL|4-METHYL   THYMOL|F0001-2201|Thymol| European Pharmacopoeia (EP) Reference Standard|Thymol| United States Pharmacopeia (USP) Reference Standard|Thymol| meets analytical specification of Ph. Eur.| BP| NF| 99-101%|Thymol| Pharmaceutical Secondary Standard; Certified Reference Material|InChI=1\/C10H14O\/c1-7(2)9-5-4-8(3)6-10(9)11\/h4-7|11H|1-3H|Thymol|Lamiaceae|thymol|p-cymenol

>  <cas>  (51) 
89-83-8

$$$$

     RDKit          2D

 29 29  0  0  0  0  0  0  0  0999 V2000
  -16.7074   -0.3796    0.0000 C   0  0  0  0  0  0  0  0  0  0  0  0
  -15.4103    0.3738    0.0000 C   0  0  0  0  0  0  0  0  0  0  0  0
  -14.1093   -0.3728    0.0000 C   0  0  0  0  0  0  0  0  0  0  0  0
  -12.8122    0.3805    0.0000 C   0  0  0  0  0  0  0  0  0  0  0  0
  -11.5113   -0.3661    0.0000 C   0  0  0  0  0  0  0  0  0  0  0  0
  -10.2142    0.3873    0.0000 C   0  0  0  0  0  0  0  0  0  0  0  0
   -8.9132   -0.3593    0.0000 C   0  0  0  0  0  0  0  0  0  0  0  0
   -7.6161    0.3940    0.0000 C   0  0  0  0  0  0  0  0  0  0  0  0
   -6.3151   -0.3526    0.0000 C   0  0  0  0  0  0  0  0  0  0  0  0
   -5.0180    0.4008    0.0000 C   0  0  0  0  0  0  0  0  0  0  0  0
   -3.7171   -0.3459    0.0000 C   0  0  0  0  0  0  0  0  0  0  0  0
   -2.4200    0.4075    0.0000 C   0  0  0  0  0  0  0  0  0  0  0  0
   -1.1190   -0.3391    0.0000 C   0  0  0  0  0  0  0  0  0  0  0  0
    0.1781    0.4143    0.0000 C   0  0  0  0  0  0  0  0  0  0  0  0
    1.4791   -0.3324    0.0000 C   0  0  0  0  0  0  0  0  0  0  0  0
    2.7762    0.4210    0.0000 C   0  0  0  0  0  0  0  0  0  0  0  0
    4.0772   -0.3256    0.0000 C   0  0  0  0  0  0  0  0  0  0  0  0
    5.3742    0.4277    0.0000 C   0  0  0  0  0  0  0  0  0  0  0  0
    6.6752   -0.3189    0.0000 C   0  0  0  0  0  0  0  0  0  0  0  0
    7.9723    0.4345    0.0000 C   0  0  0  0  0  0  0  0  0  0  0  0
    7.9684    1.9345    0.0000 C   0  0  0  0  0  0  0  0  0  0  0  0
    9.2655    2.6878    0.0000 C   0  0  0  0  0  0  0  0  0  0  0  0
   10.5665    1.9412    0.0000 C   0  0  0  0  0  0  0  0  0  0  0  0
   10.5704    0.4412    0.0000 C   0  0  0  0  0  0  0  0  0  0  0  0
   11.8714   -0.3054    0.0000 O   0  0  0  0  0  0  0  0  0  0  0  0
    9.2733   -0.3121    0.0000 C   0  0  0  0  0  0  0  0  0  0  0  0
    9.2772   -1.8121    0.0000 C   0  0  0  0  0  0  0  0  0  0  0  0
    7.9801   -2.5655    0.0000 O   0  0  0  0  0  0  0  0  0  0  0  0
   10.5782   -2.5588    0.0000 O   0  0  0  0  0  0  0  0  0  0  0  0
  1  2  1  0
  2  3  1  0
  3  4  2  3
  4  5  1  0
  5  6  1  0
  6  7  1  0
  7  8  1  0
  8  9  1  0
  9 10  1  0
 10 11  1  0
 11 12  1  0
 12 13  1  0
 13 14  1  0
 14 15  1  0
 15 16  1  0
 16 17  1  0
 17 18  1  0
 18 19  1  0
 19 20  1  0
 20 21  2  0
 21 22  1  0
 22 23  2  0
 23 24  1  0
 24 25  1  0
 24 26  2  0
 26 27  1  0
 27 28  2  0
 27 29  1  0
 26 20  1  0
M  END
>  <identifier>  (52) 
CNP0144934.0

>  <canonical_smiles>  (52) 
CCC=CCCCCCCCCCCCCCCCC1=CC=CC(O)=C1C(=O)O

>  <standard_inchi>  (52) 
InChI=1S/C26H42O3/c1-2-3-4-5-6-7-8-9-10-11-12-13-14-15-16-17-18-20-23-21-19-22-24(27)25(23)26(28)29/h3-4,19,21-22,27H,2,5-18,20H2,1H3,(H,28,29)

>  <standard_inchi_key>  (52) 
OSXBYONEOVGKOX-UHFFFAOYSA-N

>  <name>  (52) 
nan

>  <iupac_name>  (52) 
2-hydroxy-6-nonadec-16-enyl-benzoic acid

>  <annotation_level>  (52) 
5

>  <total_atom_count>  (52) 
71

>  <heavy_atom_count>  (52) 
29

>  <molecular_weight>  (52) 
402.62

>  <exact_molecular_weight>  (52) 
402.3134

>  <molecular_formula>  (52) 
C26H42O3

>  <alogp>  (52) 
8.06

>  <topological_polar_surface_area>  (52) 
57.53

>  <rotatable_bond_count>  (52) 
18

>  <hydrogen_bond_acceptors>  (52) 
2

>  <hydrogen_bond_donors>  (52) 
2

>  <hydrogen_bond_acceptors_lipinski>  (52) 
2

>  <hydrogen_bond_donors_lipinski>  (52) 
2

>  <lipinski_rule_of_five_violations>  (52) 
1

>  <aromatic_rings_count>  (52) 
1

>  <qed_drug_likeliness>  (52) 
0.19

>  <formal_charge>  (52) 
0

>  <fractioncsp3>  (52) 
0.65

>  <number_of_minimal_rings>  (52) 
1

>  <van_der_walls_volume>  (52) 
427.25

>  <contains_sugar>  (52) 
False

>  <contains_ring_sugars>  (52) 
False

>  <contains_linear_sugars>  (52) 
False

>  <murcko_framework>  (52) 
c1ccccc1

>  <np_likeness>  (52) 
0.92

>  <chemical_class>  (52) 
Benzene and substituted derivatives

>  <chemical_sub_class>  (52) 
Benzoic acids and derivatives

>  <chemical_super_class>  (52) 
Benzenoids

>  <direct_parent_classification>  (52) 
Salicylic acids

>  <np_classifier_pathway>  (52) 
Polyketides

>  <np_classifier_superclass>  (52) 
Aromatic polyketides

>  <np_classifier_class>  (52) 
Catechols with side chains

>  <np_classifier_is_glycoside>  (52) 
False

>  <organisms>  (52) 
Amphipterygium adstringens

>  <collections>  (52) 
BIOFACQUIM|Latin America dataset|UNPD (Universal Natural Products Database)

>  <dois>  (52) 
10.1080/14786419.2010.534996

>  <synonyms>  (52) 
6-16'Z-nonadecenyl salicylic acid

>  <cas>  (52) 
nan

$$$$

     RDKit          2D

 25 25  0  0  0  0  0  0  0  0999 V2000
  -13.8726   -0.3762    0.0000 C   0  0  0  0  0  0  0  0  0  0  0  0
  -12.5760    0.3782    0.0000 C   0  0  0  0  0  0  0  0  0  0  0  0
  -11.2745   -0.3675    0.0000 C   0  0  0  0  0  0  0  0  0  0  0  0
   -9.9780    0.3868    0.0000 C   0  0  0  0  0  0  0  0  0  0  0  0
   -8.6764   -0.3589    0.0000 C   0  0  0  0  0  0  0  0  0  0  0  0
   -7.3799    0.3954    0.0000 C   0  0  0  0  0  0  0  0  0  0  0  0
   -6.0784   -0.3502    0.0000 C   0  0  0  0  0  0  0  0  0  0  0  0
   -4.7818    0.4041    0.0000 C   0  0  0  0  0  0  0  0  0  0  0  0
   -3.4803   -0.3416    0.0000 C   0  0  0  0  0  0  0  0  0  0  0  0
   -2.1838    0.4127    0.0000 C   0  0  0  0  0  0  0  0  0  0  0  0
   -0.8822   -0.3329    0.0000 C   0  0  0  0  0  0  0  0  0  0  0  0
    0.4143    0.4214    0.0000 C   0  0  0  0  0  0  0  0  0  0  0  0
    1.7158   -0.3243    0.0000 C   0  0  0  0  0  0  0  0  0  0  0  0
    3.0124    0.4300    0.0000 C   0  0  0  0  0  0  0  0  0  0  0  0
    4.3139   -0.3156    0.0000 C   0  0  0  0  0  0  0  0  0  0  0  0
    5.6104    0.4387    0.0000 C   0  0  0  0  0  0  0  0  0  0  0  0
    5.6054    1.9387    0.0000 C   0  0  0  0  0  0  0  0  0  0  0  0
    6.9020    2.6930    0.0000 C   0  0  0  0  0  0  0  0  0  0  0  0
    8.2035    1.9473    0.0000 C   0  0  0  0  0  0  0  0  0  0  0  0
    8.2085    0.4473    0.0000 C   0  0  0  0  0  0  0  0  0  0  0  0
    9.5100   -0.2984    0.0000 O   0  0  0  0  0  0  0  0  0  0  0  0
    6.9119   -0.3070    0.0000 C   0  0  0  0  0  0  0  0  0  0  0  0
    6.9169   -1.8070    0.0000 C   0  0  0  0  0  0  0  0  0  0  0  0
    5.6204   -2.5613    0.0000 O   0  0  0  0  0  0  0  0  0  0  0  0
    8.2185   -2.5527    0.0000 O   0  0  0  0  0  0  0  0  0  0  0  0
  1  2  1  0
  2  3  1  0
  3  4  1  0
  4  5  1  0
  5  6  1  0
  6  7  1  0
  7  8  2  3
  8  9  1  0
  9 10  1  0
 10 11  1  0
 11 12  1  0
 12 13  1  0
 13 14  1  0
 14 15  1  0
 15 16  1  0
 16 17  2  0
 17 18  1  0
 18 19  2  0
 19 20  1  0
 20 21  1  0
 20 22  2  0
 22 23  1  0
 23 24  2  0
 23 25  1  0
 22 16  1  0
M  END
>  <identifier>  (53) 
CNP0195529.0

>  <canonical_smiles>  (53) 
CCCCCCC=CCCCCCCCC1=CC=CC(O)=C1C(=O)O

>  <standard_inchi>  (53) 
InChI=1S/C22H34O3/c1-2-3-4-5-6-7-8-9-10-11-12-13-14-16-19-17-15-18-20(23)21(19)22(24)25/h7-8,15,17-18,23H,2-6,9-14,16H2,1H3,(H,24,25)

>  <standard_inchi_key>  (53) 
YXHVCZZLWZYHSA-UHFFFAOYSA-N

>  <name>  (53) 
Benzoic acid, 2-hydroxy-6-(8-pentadecenyl)-

>  <iupac_name>  (53) 
2-hydroxy-6-pentadec-8-enyl-benzoic acid

>  <annotation_level>  (53) 
5

>  <total_atom_count>  (53) 
59

>  <heavy_atom_count>  (53) 
25

>  <molecular_weight>  (53) 
346.51

>  <exact_molecular_weight>  (53) 
346.25079

>  <molecular_formula>  (53) 
C22H34O3

>  <alogp>  (53) 
6.50

>  <topological_polar_surface_area>  (53) 
57.53

>  <rotatable_bond_count>  (53) 
14

>  <hydrogen_bond_acceptors>  (53) 
2

>  <hydrogen_bond_donors>  (53) 
2

>  <hydrogen_bond_acceptors_lipinski>  (53) 
2

>  <hydrogen_bond_donors_lipinski>  (53) 
2

>  <lipinski_rule_of_five_violations>  (53) 
1

>  <aromatic_rings_count>  (53) 
1

>  <qed_drug_likeliness>  (53) 
0.30

>  <formal_charge>  (53) 
0

>  <fractioncsp3>  (53) 
0.59

>  <number_of_minimal_rings>  (53) 
1

>  <van_der_walls_volume>  (53) 
362.19

>  <contains_sugar>  (53) 
False

>  <contains_ring_sugars>  (53) 
False

>  <contains_linear_sugars>  (53) 
False

>  <murcko_framework>  (53) 
c1ccccc1

>  <np_likeness>  (53) 
0.93

>  <chemical_class>  (53) 
Benzene and substituted derivatives

>  <chemical_sub_class>  (53) 
Benzoic acids and derivatives

>  <chemical_super_class>  (53) 
Benzenoids

>  <direct_parent_classification>  (53) 
Salicylic acids

>  <np_classifier_pathway>  (53) 
Polyketides

>  <np_classifier_superclass>  (53) 
Aromatic polyketides

>  <np_classifier_class>  (53) 
Catechols with side chains

>  <np_classifier_is_glycoside>  (53) 
False

>  <organisms>  (53) 
Amphipterygium adstringens|Anacardium occidentale|Anemarrhena asphodeloides|Aronia arbutifolia|Aspilia eenii|Calocedrus decurrens|Carthamus tinctorius|Cephalotaxus fortunei|Cephalotaxus harringtonia|Citrullus lanatus|Clibadium mexiae|Discaria serratifolia|Epimedium koreanum|Ginkgo biloba|Ginkgo biloba L.|Helichrysum platypterum|Helipterum charsleyae|Ideopsis similis|Iva asperifolia|Justicia hayatai|Nelumbo nucifera|Prunus armeniaca|Pteris dactylina|Pyrostegia venusta|Rana amurensis|Sclerotinia sclerotiorum|Tanacetum aucherianum|Thymus caespititius|Viscaria viscosa

>  <collections>  (53) 
AnalytiCon Discovery NPs|Australian natural products|BIOFACQUIM|CMAUP (cCollective molecular activities of useful plants)|ChEBI NPs|FooDB|GNPS (Global Natural Products Social Molecular Networking)|KNApSaCK|Latin America dataset|NPASS|NPCARE|NPEdia|NuBBEDB|Super Natural II|TCMDB-Taiwan (Traditional Chinese Medicine database)|TCMID (Traditional Chinese Medicine Integrated Database)|TPPT (Toxic Plants–PhytoToxins)|UNPD (Universal Natural Products Database)|VietHerb|Watermelon|ZINC NP

>  <dois>  (53) 
10.1002/food.19880321030|10.1016/0031-9422(89)80045-7|10.1021/jf00030a035|10.1021/jf071801p|10.1021/np50106a021|10.1021/np970367q|10.1021/np980117p|10.1080/14786419.2010.534996|10.2903/j.efsa.2012.2663

>  <synonyms>  (53) 
2-hydroxy-6-pentadec-8-enylbenzoic acid|76261-14-8|C22H34O3|(Z)-2-Hydroxy-6-(pentadec-8-en-1-yl)benzoic acid|Spectrum2_000514|Spectrum3_001133|Spectrum4_001979|2-hydroxy-6-(8Z)-pentadec-8-en-1-ylbenzoic acid|KBioGR_002483|SPBio_000467|SCHEMBL3937217|KBio3_002125|DTXSID40327243|NCI60_012889|6-8'Z-pentadecenyl salicylic acid|Ginkgoic acid|Ginkgolic acid C15:1

>  <cas>  (53) 
76261-14-8

$$$$

     RDKit          2D

 20 21  0  0  0  0  0  0  0  0999 V2000
   -5.3284    0.6154    0.0000 C   0  0  0  0  0  0  0  0  0  0  0  0
   -4.9511   -0.8364    0.0000 C   0  0  0  0  0  0  0  0  0  0  0  0
   -3.5052   -1.2356    0.0000 C   0  0  0  0  0  0  0  0  0  0  0  0
   -3.1280   -2.6874    0.0000 C   0  0  0  0  0  0  0  0  0  0  0  0
   -2.4366   -0.1830    0.0000 C   0  0  0  0  0  0  0  0  0  0  0  0
   -2.8138    1.2687    0.0000 O   0  0  0  0  0  0  0  0  0  0  0  0
   -0.9907   -0.5823    0.0000 O   0  0  0  0  0  0  0  0  0  0  0  0
    0.0780    0.4703    0.0000 C   0  0  0  0  0  0  0  0  0  0  0  0
   -0.2992    1.9221    0.0000 C   0  0  0  0  0  0  0  0  0  0  0  0
    0.7695    2.9747    0.0000 C   0  0  0  0  0  0  0  0  0  0  0  0
    0.3922    4.4265    0.0000 C   0  0  0  0  0  0  0  0  0  0  0  0
    2.2154    2.5755    0.0000 C   0  0  0  0  0  0  0  0  0  0  0  0
    2.5926    1.1237    0.0000 C   0  0  0  0  0  0  0  0  0  0  0  0
    1.5239    0.0711    0.0000 C   0  0  0  0  0  0  0  0  0  0  0  0
    1.9011   -1.3807    0.0000 C   0  0  0  0  0  0  0  0  0  0  0  0
    3.3964   -1.2613    0.0000 C   0  0  0  0  0  0  0  0  0  0  0  0
    4.2474   -2.4965    0.0000 C   0  0  0  0  0  0  0  0  0  0  0  0
    4.0406    0.0933    0.0000 O   0  0  0  0  0  0  0  0  0  0  0  0
    1.7591   -2.8739    0.0000 C   0  0  0  0  0  0  0  0  0  0  0  0
    0.5369   -2.0043    0.0000 O   0  0  0  0  0  0  0  0  0  0  0  0
  1  2  1  0
  2  3  2  0
  3  4  1  0
  3  5  1  0
  5  6  2  0
  5  7  1  0
  7  8  1  0
  8  9  2  0
  9 10  1  0
 10 11  1  0
 10 12  2  0
 12 13  1  0
 13 14  2  0
 14 15  1  0
 15 16  1  6
 16 17  1  0
 16 18  2  0
 15 19  1  0
 19 20  1  0
 14  8  1  0
 20 15  1  0
M  END
>  <identifier>  (54) 
CNP0132048.1

>  <canonical_smiles>  (54) 
C/C=C(/C)C(=O)OC1=CC(C)=CC=C1[C@@]1(C(C)=O)CO1

>  <standard_inchi>  (54) 
InChI=1S/C16H18O4/c1-5-11(3)15(18)20-14-8-10(2)6-7-13(14)16(9-19-16)12(4)17/h5-8H,9H2,1-4H3/b11-5-/t16-/m0/s1

>  <standard_inchi_key>  (54) 
LONAZUBXVNGNKH-XKGFZTIGSA-N

>  <name>  (54) 
nan

>  <iupac_name>  (54) 
[2-[(2~{S})-2-acetyloxiran-2-yl]-5-methyl-phenyl] (~{Z})-2-methylbut-2-enoate

>  <annotation_level>  (54) 
5

>  <total_atom_count>  (54) 
38

>  <heavy_atom_count>  (54) 
20

>  <molecular_weight>  (54) 
274.32

>  <exact_molecular_weight>  (54) 
274.12051

>  <molecular_formula>  (54) 
C16H18O4

>  <alogp>  (54) 
2.68

>  <topological_polar_surface_area>  (54) 
55.90

>  <rotatable_bond_count>  (54) 
4

>  <hydrogen_bond_acceptors>  (54) 
4

>  <hydrogen_bond_donors>  (54) 
0

>  <hydrogen_bond_acceptors_lipinski>  (54) 
4

>  <hydrogen_bond_donors_lipinski>  (54) 
0

>  <lipinski_rule_of_five_violations>  (54) 
0

>  <aromatic_rings_count>  (54) 
1

>  <qed_drug_likeliness>  (54) 
0.37

>  <formal_charge>  (54) 
0

>  <fractioncsp3>  (54) 
0.38

>  <number_of_minimal_rings>  (54) 
2

>  <van_der_walls_volume>  (54) 
259.20

>  <contains_sugar>  (54) 
False

>  <contains_ring_sugars>  (54) 
False

>  <contains_linear_sugars>  (54) 
False

>  <murcko_framework>  (54) 
O1CC1c2ccccc2

>  <np_likeness>  (54) 
1.15

>  <chemical_class>  (54) 
Phenol esters

>  <chemical_sub_class>  (54) 
Phenol esters

>  <chemical_super_class>  (54) 
Benzenoids

>  <direct_parent_classification>  (54) 
Phenol esters

>  <np_classifier_pathway>  (54) 
Polyketides

>  <np_classifier_superclass>  (54) 
nan

>  <np_classifier_class>  (54) 
nan

>  <np_classifier_is_glycoside>  (54) 
False

>  <organisms>  (54) 
Hofmeisteria schaffneri

>  <collections>  (54) 
BIOFACQUIM

>  <dois>  (54) 
10.1016/j.jep.2010.07.009

>  <synonyms>  (54) 
8 9-epoxy-10-acetoxythymyl angelate

>  <cas>  (54) 
nan

$$$$

     RDKit          2D

 29 29  0  0  0  0  0  0  0  0999 V2000
  -16.7074   -0.3796    0.0000 C   0  0  0  0  0  0  0  0  0  0  0  0
  -15.4103    0.3738    0.0000 C   0  0  0  0  0  0  0  0  0  0  0  0
  -14.1093   -0.3728    0.0000 C   0  0  0  0  0  0  0  0  0  0  0  0
  -12.8122    0.3805    0.0000 C   0  0  0  0  0  0  0  0  0  0  0  0
  -11.5113   -0.3661    0.0000 C   0  0  0  0  0  0  0  0  0  0  0  0
  -10.2142    0.3873    0.0000 C   0  0  0  0  0  0  0  0  0  0  0  0
   -8.9132   -0.3593    0.0000 C   0  0  0  0  0  0  0  0  0  0  0  0
   -7.6161    0.3940    0.0000 C   0  0  0  0  0  0  0  0  0  0  0  0
   -6.3151   -0.3526    0.0000 C   0  0  0  0  0  0  0  0  0  0  0  0
   -5.0180    0.4008    0.0000 C   0  0  0  0  0  0  0  0  0  0  0  0
   -3.7171   -0.3459    0.0000 C   0  0  0  0  0  0  0  0  0  0  0  0
   -2.4200    0.4075    0.0000 C   0  0  0  0  0  0  0  0  0  0  0  0
   -1.1190   -0.3391    0.0000 C   0  0  0  0  0  0  0  0  0  0  0  0
    0.1781    0.4143    0.0000 C   0  0  0  0  0  0  0  0  0  0  0  0
    1.4791   -0.3324    0.0000 C   0  0  0  0  0  0  0  0  0  0  0  0
    2.7762    0.4210    0.0000 C   0  0  0  0  0  0  0  0  0  0  0  0
    4.0772   -0.3256    0.0000 C   0  0  0  0  0  0  0  0  0  0  0  0
    5.3742    0.4277    0.0000 C   0  0  0  0  0  0  0  0  0  0  0  0
    6.6752   -0.3189    0.0000 C   0  0  0  0  0  0  0  0  0  0  0  0
    7.9723    0.4345    0.0000 C   0  0  0  0  0  0  0  0  0  0  0  0
    7.9684    1.9345    0.0000 C   0  0  0  0  0  0  0  0  0  0  0  0
    9.2655    2.6878    0.0000 C   0  0  0  0  0  0  0  0  0  0  0  0
   10.5665    1.9412    0.0000 C   0  0  0  0  0  0  0  0  0  0  0  0
   10.5704    0.4412    0.0000 C   0  0  0  0  0  0  0  0  0  0  0  0
   11.8714   -0.3054    0.0000 O   0  0  0  0  0  0  0  0  0  0  0  0
    9.2733   -0.3121    0.0000 C   0  0  0  0  0  0  0  0  0  0  0  0
    9.2772   -1.8121    0.0000 C   0  0  0  0  0  0  0  0  0  0  0  0
    7.9801   -2.5655    0.0000 O   0  0  0  0  0  0  0  0  0  0  0  0
   10.5782   -2.5588    0.0000 O   0  0  0  0  0  0  0  0  0  0  0  0
  1  2  1  0
  2  3  1  0
  3  4  1  0
  4  5  1  0
  5  6  1  0
  6  7  1  0
  7  8  1  0
  8  9  1  0
  9 10  1  0
 10 11  1  0
 11 12  1  0
 12 13  1  0
 13 14  1  0
 14 15  1  0
 15 16  1  0
 16 17  1  0
 17 18  1  0
 18 19  1  0
 19 20  1  0
 20 21  2  0
 21 22  1  0
 22 23  2  0
 23 24  1  0
 24 25  1  0
 24 26  2  0
 26 27  1  0
 27 28  2  0
 27 29  1  0
 26 20  1  0
M  END
>  <identifier>  (55) 
CNP0299174.0

>  <canonical_smiles>  (55) 
CCCCCCCCCCCCCCCCCCCC1=CC=CC(O)=C1C(=O)O

>  <standard_inchi>  (55) 
InChI=1S/C26H44O3/c1-2-3-4-5-6-7-8-9-10-11-12-13-14-15-16-17-18-20-23-21-19-22-24(27)25(23)26(28)29/h19,21-22,27H,2-18,20H2,1H3,(H,28,29)

>  <standard_inchi_key>  (55) 
KLYPIICREBFTGY-UHFFFAOYSA-N

>  <name>  (55) 
6-Nonadecylsalcylic acid

>  <iupac_name>  (55) 
2-hydroxy-6-nonadecyl-benzoic acid

>  <annotation_level>  (55) 
5

>  <total_atom_count>  (55) 
73

>  <heavy_atom_count>  (55) 
29

>  <molecular_weight>  (55) 
404.64

>  <exact_molecular_weight>  (55) 
404.32905

>  <molecular_formula>  (55) 
C26H44O3

>  <alogp>  (55) 
8.28

>  <topological_polar_surface_area>  (55) 
57.53

>  <rotatable_bond_count>  (55) 
19

>  <hydrogen_bond_acceptors>  (55) 
2

>  <hydrogen_bond_donors>  (55) 
2

>  <hydrogen_bond_acceptors_lipinski>  (55) 
2

>  <hydrogen_bond_donors_lipinski>  (55) 
2

>  <lipinski_rule_of_five_violations>  (55) 
1

>  <aromatic_rings_count>  (55) 
1

>  <qed_drug_likeliness>  (55) 
0.23

>  <formal_charge>  (55) 
0

>  <fractioncsp3>  (55) 
0.73

>  <number_of_minimal_rings>  (55) 
1

>  <van_der_walls_volume>  (55) 
433.62

>  <contains_sugar>  (55) 
False

>  <contains_ring_sugars>  (55) 
False

>  <contains_linear_sugars>  (55) 
False

>  <murcko_framework>  (55) 
c1ccccc1

>  <np_likeness>  (55) 
0.44

>  <chemical_class>  (55) 
Benzene and substituted derivatives

>  <chemical_sub_class>  (55) 
Benzoic acids and derivatives

>  <chemical_super_class>  (55) 
Benzenoids

>  <direct_parent_classification>  (55) 
Salicylic acids

>  <np_classifier_pathway>  (55) 
Polyketides

>  <np_classifier_superclass>  (55) 
Aromatic polyketides

>  <np_classifier_class>  (55) 
Catechols with side chains

>  <np_classifier_is_glycoside>  (55) 
False

>  <organisms>  (55) 
Amphipterygium adstringens

>  <collections>  (55) 
BIOFACQUIM|Latin America dataset|UNPD (Universal Natural Products Database)

>  <dois>  (55) 
10.1080/14786419.2010.534996

>  <synonyms>  (55) 
126633-45-2|CCRIS 9279|2-hydroxy-6-nonadecylbenzoic acid|SCHEMBL2558603|Benzoic acid| 2-hydroxy-6-nonadecyl-|6-nonadecyl salicylic acid

>  <cas>  (55) 
126633-45-2

$$$$

     RDKit          2D

 25 25  0  0  0  0  0  0  0  0999 V2000
  -13.8726   -0.3762    0.0000 C   0  0  0  0  0  0  0  0  0  0  0  0
  -12.5760    0.3782    0.0000 C   0  0  0  0  0  0  0  0  0  0  0  0
  -11.2745   -0.3675    0.0000 C   0  0  0  0  0  0  0  0  0  0  0  0
   -9.9780    0.3868    0.0000 C   0  0  0  0  0  0  0  0  0  0  0  0
   -8.6764   -0.3589    0.0000 C   0  0  0  0  0  0  0  0  0  0  0  0
   -7.3799    0.3954    0.0000 C   0  0  0  0  0  0  0  0  0  0  0  0
   -6.0784   -0.3502    0.0000 C   0  0  0  0  0  0  0  0  0  0  0  0
   -4.7818    0.4041    0.0000 C   0  0  0  0  0  0  0  0  0  0  0  0
   -3.4803   -0.3416    0.0000 C   0  0  0  0  0  0  0  0  0  0  0  0
   -2.1838    0.4127    0.0000 C   0  0  0  0  0  0  0  0  0  0  0  0
   -0.8822   -0.3329    0.0000 C   0  0  0  0  0  0  0  0  0  0  0  0
    0.4143    0.4214    0.0000 C   0  0  0  0  0  0  0  0  0  0  0  0
    1.7158   -0.3243    0.0000 C   0  0  0  0  0  0  0  0  0  0  0  0
    3.0124    0.4300    0.0000 C   0  0  0  0  0  0  0  0  0  0  0  0
    4.3139   -0.3156    0.0000 C   0  0  0  0  0  0  0  0  0  0  0  0
    5.6104    0.4387    0.0000 C   0  0  0  0  0  0  0  0  0  0  0  0
    5.6054    1.9387    0.0000 C   0  0  0  0  0  0  0  0  0  0  0  0
    6.9020    2.6930    0.0000 C   0  0  0  0  0  0  0  0  0  0  0  0
    8.2035    1.9473    0.0000 C   0  0  0  0  0  0  0  0  0  0  0  0
    8.2085    0.4473    0.0000 C   0  0  0  0  0  0  0  0  0  0  0  0
    9.5100   -0.2984    0.0000 O   0  0  0  0  0  0  0  0  0  0  0  0
    6.9119   -0.3070    0.0000 C   0  0  0  0  0  0  0  0  0  0  0  0
    6.9169   -1.8070    0.0000 C   0  0  0  0  0  0  0  0  0  0  0  0
    5.6204   -2.5613    0.0000 O   0  0  0  0  0  0  0  0  0  0  0  0
    8.2185   -2.5527    0.0000 O   0  0  0  0  0  0  0  0  0  0  0  0
  1  2  1  0
  2  3  1  0
  3  4  1  0
  4  5  1  0
  5  6  1  0
  6  7  1  0
  7  8  1  0
  8  9  1  0
  9 10  1  0
 10 11  1  0
 11 12  1  0
 12 13  1  0
 13 14  1  0
 14 15  1  0
 15 16  1  0
 16 17  2  0
 17 18  1  0
 18 19  2  0
 19 20  1  0
 20 21  1  0
 20 22  2  0
 22 23  1  0
 23 24  2  0
 23 25  1  0
 22 16  1  0
M  END
>  <identifier>  (56) 
CNP0159086.0

>  <canonical_smiles>  (56) 
CCCCCCCCCCCCCCCC1=CC=CC(O)=C1C(=O)O

>  <standard_inchi>  (56) 
InChI=1S/C22H36O3/c1-2-3-4-5-6-7-8-9-10-11-12-13-14-16-19-17-15-18-20(23)21(19)22(24)25/h15,17-18,23H,2-14,16H2,1H3,(H,24,25)

>  <standard_inchi_key>  (56) 
ADFWQBGTDJIESE-UHFFFAOYSA-N

>  <name>  (56) 
ANACARDIC ACID

>  <iupac_name>  (56) 
2-hydroxy-6-pentadecyl-benzoic acid

>  <annotation_level>  (56) 
5

>  <total_atom_count>  (56) 
61

>  <heavy_atom_count>  (56) 
25

>  <molecular_weight>  (56) 
348.53

>  <exact_molecular_weight>  (56) 
348.26645

>  <molecular_formula>  (56) 
C22H36O3

>  <alogp>  (56) 
6.72

>  <topological_polar_surface_area>  (56) 
57.53

>  <rotatable_bond_count>  (56) 
15

>  <hydrogen_bond_acceptors>  (56) 
2

>  <hydrogen_bond_donors>  (56) 
2

>  <hydrogen_bond_acceptors_lipinski>  (56) 
2

>  <hydrogen_bond_donors_lipinski>  (56) 
2

>  <lipinski_rule_of_five_violations>  (56) 
1

>  <aromatic_rings_count>  (56) 
1

>  <qed_drug_likeliness>  (56) 
0.35

>  <formal_charge>  (56) 
0

>  <fractioncsp3>  (56) 
0.68

>  <number_of_minimal_rings>  (56) 
1

>  <van_der_walls_volume>  (56) 
366.98

>  <contains_sugar>  (56) 
False

>  <contains_ring_sugars>  (56) 
False

>  <contains_linear_sugars>  (56) 
False

>  <murcko_framework>  (56) 
c1ccccc1

>  <np_likeness>  (56) 
0.51

>  <chemical_class>  (56) 
Benzene and substituted derivatives

>  <chemical_sub_class>  (56) 
Benzoic acids and derivatives

>  <chemical_super_class>  (56) 
Benzenoids

>  <direct_parent_classification>  (56) 
Salicylic acids

>  <np_classifier_pathway>  (56) 
Polyketides

>  <np_classifier_superclass>  (56) 
Aromatic polyketides

>  <np_classifier_class>  (56) 
Catechols with side chains

>  <np_classifier_is_glycoside>  (56) 
False

>  <organisms>  (56) 
Amphipterygium adstringens|Anacardium occidentale|Aronia arbutifolia|Aspilia eenii|Calocedrus decurrens|Caulocystis cephalornithos|Clibadium mexiae|Discaria serratifolia|Ginkgo biloba|Ginkgo biloba L.|Helichrysum platypterum|Ideopsis similis|Iva asperifolia|Justicia hayatai|Nelumbo nucifera|Ozoroa insignis|Pteris dactylina|Pyrostegia venusta|Rana amurensis|Sclerotinia sclerotiorum|Tanacetum aucherianum|Thymus caespititius|Viscaria viscosa

>  <collections>  (56) 
ANPDB|Australian natural products|BIOFACQUIM|CMAUP (cCollective molecular activities of useful plants)|ChEBI NPs|FooDB|KNApSaCK|Latin America dataset|NANPDB (Natural Products from Northern African Sources)|NPASS|NPCARE|NPEdia|NuBBEDB|Super Natural II|TCMDB-Taiwan (Traditional Chinese Medicine database)|TCMID (Traditional Chinese Medicine Integrated Database)|TPPT (Toxic Plants–PhytoToxins)|UNPD (Universal Natural Products Database)|VietHerb

>  <dois>  (56) 
10.1002/food.19880321030|10.1016/j.bse.2006.03.004|10.1021/jf00030a035|10.1080/14786419.2010.534996|10.2903/j.efsa.2012.2663

>  <synonyms>  (56) 
16611-84-0|2-Hydroxy-6-pentadecylbenzoic acid|6-Pentadecylsalicylic acid|Ginkgolic acid C15:0|Hydroginkgolic acid|cyclogallipharic acid|22:0-Anacardic acid|Benzoic acid| 2-hydroxy-6-pentadecyl-|Anacardic acid A|C22H36O3|(15:0)-Anacardic acid|CHEBI:2696|MFCD07368254|NSC623096|NSC-229596|NSC-333857|Anacardsaure|Anarcadic Acid|Anacardic Acid?|Benzoic acid||6-PDSA|PA-9A|Pentadecylsalicylic acid| 6-|6-(Pentadecyl)Salicylic Acid|CHEMBL33778|SCHEMBL627981|Salicylic acid| 6-pentadecyl-|8H693KBS2W|DTXSID00168078|HMS3426M05|6-Pentadecyl-2-hydroxybenzoic acid|BCP27645|EX-A3352|HY-N2020|BDBM50240436|HB1380|LMPK15040002|s7582|AKOS024457416|CCG-208707|Anacardic Acid - CAS 16611-84-0|NCGC00263625-09|11034-77-8|AS-63256|(15:0)-Anacardic acid| analytical standard|2-OXIDANYL-6-PENTADECYL-BENZOIC ACID|CS-0018377|NS- 623096|NS00094589|A925109|J-010259|BRD-K66989831-001-01-3

>  <cas>  (56) 
16611-84-0|Anacardic Acid - CAS 16611-84-0|11034-77-8

$$$$

     RDKit          2D

 33 36  0  0  0  0  0  0  0  0999 V2000
    8.0612   -0.1629    0.0000 C   0  0  0  0  0  0  0  0  0  0  0  0
    7.0722   -1.2907    0.0000 C   0  0  0  0  0  0  0  0  0  0  0  0
    5.6010   -0.9981    0.0000 C   0  0  0  0  0  0  0  0  0  0  0  0
    5.1188    0.4223    0.0000 C   0  0  0  0  0  0  0  0  0  0  0  0
    3.6476    0.7149    0.0000 C   0  0  0  0  0  0  0  0  0  0  0  0
    3.1654    2.1353    0.0000 C   0  0  0  0  0  0  0  0  0  0  0  0
    4.1544    3.2630    0.0000 C   0  0  0  0  0  0  0  0  0  0  0  0
    1.6943    2.4279    0.0000 C   0  0  0  0  0  0  0  0  0  0  0  0
    1.0662    3.7901    0.0000 C   0  0  0  0  0  0  0  0  0  0  0  0
   -0.4234    3.6137    0.0000 C   0  0  0  0  0  0  0  0  0  0  0  0
   -0.7160    2.1425    0.0000 C   0  0  0  0  0  0  0  0  0  0  0  0
   -1.9409    3.0082    0.0000 C   0  0  0  0  0  0  0  0  0  0  0  0
   -2.0051    1.3756    0.0000 C   0  0  0  0  0  0  0  0  0  0  0  0
   -3.3138    2.1085    0.0000 C   0  0  0  0  0  0  0  0  0  0  0  0
   -4.6029    1.3415    0.0000 C   0  0  0  0  0  0  0  0  0  0  0  0
   -4.5832   -0.1584    0.0000 C   0  0  0  0  0  0  0  0  0  0  0  0
   -5.8723   -0.9253    0.0000 C   0  0  0  0  0  0  0  0  0  0  0  0
   -7.3460   -1.2052    0.0000 C   0  0  0  0  0  0  0  0  0  0  0  0
   -6.4038    0.4774    0.0000 C   0  0  0  0  0  0  0  0  0  0  0  0
   -5.8527   -2.4252    0.0000 C   0  0  0  0  0  0  0  0  0  0  0  0
   -7.1418   -3.1922    0.0000 O   0  0  0  0  0  0  0  0  0  0  0  0
   -4.5439   -3.1581    0.0000 C   0  0  0  0  0  0  0  0  0  0  0  0
   -3.2548   -2.3911    0.0000 C   0  0  0  0  0  0  0  0  0  0  0  0
   -3.2745   -0.8913    0.0000 C   0  0  0  0  0  0  0  0  0  0  0  0
   -1.9657   -1.6242    0.0000 C   0  0  0  0  0  0  0  0  0  0  0  0
   -1.9854   -0.1243    0.0000 C   0  0  0  0  0  0  0  0  0  0  0  0
   -0.6766   -0.8572    0.0000 C   0  0  0  0  0  0  0  0  0  0  0  0
    0.6125   -0.0902    0.0000 C   0  0  0  0  0  0  0  0  0  0  0  0
    0.5928    1.4096    0.0000 C   0  0  0  0  0  0  0  0  0  0  0  0
    1.9710    0.8176    0.0000 C   0  0  0  0  0  0  0  0  0  0  0  0
    7.5544   -2.7111    0.0000 C   0  0  0  0  0  0  0  0  0  0  0  0
    9.0256   -3.0037    0.0000 O   0  0  0  0  0  0  0  0  0  0  0  0
    6.5654   -3.8389    0.0000 O   0  0  0  0  0  0  0  0  0  0  0  0
  1  2  1  0
  2  3  2  0
  3  4  1  0
  4  5  1  0
  5  6  1  0
  6  7  1  1
  6  8  1  0
  8  9  1  1
  9 10  1  0
 10 11  1  0
 11 12  1  6
 11 13  1  0
 13 14  2  0
 14 15  1  0
 15 16  1  0
 16 17  1  0
 17 18  1  0
 17 19  1  0
 17 20  1  0
 20 21  2  0
 20 22  1  0
 22 23  1  0
 23 24  1  0
 24 25  1  6
 24 26  1  0
 26 27  1  0
 27 28  1  0
 28 29  1  0
 29 30  1  1
  2 31  1  0
 31 32  2  0
 31 33  1  0
 29  8  1  0
 29 11  1  0
 26 13  1  0
 24 16  1  0
M  END
>  <identifier>  (57) 
CNP0237904.2

>  <canonical_smiles>  (57) 
C/C(=C\CC[C@H](C)[C@@H]1CC[C@]2(C)C3=CCC4C(C)(C)C(=O)CC[C@]4(C)C3CC[C@@]12C)C(=O)O

>  <standard_inchi>  (57) 
InChI=1S/C30H46O3/c1-19(9-8-10-20(2)26(32)33)21-13-17-30(7)23-11-12-24-27(3,4)25(31)15-16-28(24,5)22(23)14-18-29(21,30)6/h10-11,19,21-22,24H,8-9,12-18H2,1-7H3,(H,32,33)/b20-10+/t19-,21-,22?,24?,28+,29-,30+/m0/s1

>  <standard_inchi_key>  (57) 
VOYZLKWKVLYJHD-DSRSRPTBSA-N

>  <name>  (57) 
(E,6S)-2-methyl-6-[(10R,13S,14S,17S)-4,4,10,13,14-pentamethyl-3-oxo-1,2,5,6,9,11,12,15,16,17-decahydrocyclopenta[a]phenanthren-17-yl]hept-2-enoic acid

>  <iupac_name>  (57) 
(~{E},6~{S})-2-methyl-6-[(10~{R},13~{S},14~{S},17~{S})-4,4,10,13,14-pentamethyl-3-oxo-1,2,5,6,9,11,12,15,16,17-decahydrocyclopenta[a]phenanthren-17-yl]hept-2-enoic acid

>  <annotation_level>  (57) 
5

>  <total_atom_count>  (57) 
79

>  <heavy_atom_count>  (57) 
33

>  <molecular_weight>  (57) 
454.7

>  <exact_molecular_weight>  (57) 
454.3447

>  <molecular_formula>  (57) 
C30H46O3

>  <alogp>  (57) 
7.61

>  <topological_polar_surface_area>  (57) 
54.37

>  <rotatable_bond_count>  (57) 
5

>  <hydrogen_bond_acceptors>  (57) 
2

>  <hydrogen_bond_donors>  (57) 
1

>  <hydrogen_bond_acceptors_lipinski>  (57) 
2

>  <hydrogen_bond_donors_lipinski>  (57) 
1

>  <lipinski_rule_of_five_violations>  (57) 
1

>  <aromatic_rings_count>  (57) 
0

>  <qed_drug_likeliness>  (57) 
0.34

>  <formal_charge>  (57) 
0

>  <fractioncsp3>  (57) 
0.80

>  <number_of_minimal_rings>  (57) 
4

>  <van_der_walls_volume>  (57) 
459.98

>  <contains_sugar>  (57) 
False

>  <contains_ring_sugars>  (57) 
False

>  <contains_linear_sugars>  (57) 
False

>  <murcko_framework>  (57) 
C1=C2C3CCCC3CCC2C4CCCCC4C1

>  <np_likeness>  (57) 
3.55

>  <chemical_class>  (57) 
Steroids and steroid derivatives

>  <chemical_sub_class>  (57) 
Oxosteroids

>  <chemical_super_class>  (57) 
Lipids and lipid-like molecules

>  <direct_parent_classification>  (57) 
Oxosteroids

>  <np_classifier_pathway>  (57) 
Terpenoids

>  <np_classifier_superclass>  (57) 
Triterpenoids

>  <np_classifier_class>  (57) 
Lanostane, Tirucallane and Euphane triterpenoids

>  <np_classifier_is_glycoside>  (57) 
False

>  <organisms>  (57) 
Amphipterygium adstringens

>  <collections>  (57) 
BIOFACQUIM|Latin America dataset

>  <dois>  (57) 
10.1080/14786419.2010.534996

>  <synonyms>  (57) 
Lanosta-7|24-dien-26-oic acid| 3-oxo-| (5x|9x|13a|14b|17a|24E)-|Masticadienonic acid

>  <cas>  (57) 
nan

$$$$

     RDKit          2D

 33 36  0  0  0  0  0  0  0  0999 V2000
   -4.1806    5.3231    0.0000 C   0  0  0  0  0  0  0  0  0  0  0  0
   -3.3267    4.0898    0.0000 C   0  0  0  0  0  0  0  0  0  0  0  0
   -1.8317    4.2127    0.0000 O   0  0  0  0  0  0  0  0  0  0  0  0
   -3.9678    2.7337    0.0000 C   0  0  0  0  0  0  0  0  0  0  0  0
   -3.1139    1.5005    0.0000 C   0  0  0  0  0  0  0  0  0  0  0  0
   -3.5774   -0.5327    0.0000 C   0  0  0  0  0  0  0  0  0  0  0  0
   -4.9792    1.0112    0.0000 C   0  0  0  0  0  0  0  0  0  0  0  0
   -2.3082   -0.2515    0.0000 C   0  0  0  0  0  0  0  0  0  0  0  0
   -1.2419    0.8036    0.0000 C   0  0  0  0  0  0  0  0  0  0  0  0
    0.2049    0.4077    0.0000 C   0  0  0  0  0  0  0  0  0  0  0  0
    1.2711    1.4627    0.0000 O   0  0  0  0  0  0  0  0  0  0  0  0
    2.7180    1.0669    0.0000 C   0  0  0  0  0  0  0  0  0  0  0  0
    3.0985   -0.3840    0.0000 O   0  0  0  0  0  0  0  0  0  0  0  0
    4.5454   -0.7799    0.0000 C   0  0  0  0  0  0  0  0  0  0  0  0
    4.9260   -2.2308    0.0000 C   0  0  0  0  0  0  0  0  0  0  0  0
    3.8597   -3.2859    0.0000 O   0  0  0  0  0  0  0  0  0  0  0  0
    5.6116    0.2752    0.0000 C   0  0  0  0  0  0  0  0  0  0  0  0
    7.0584   -0.1207    0.0000 O   0  0  0  0  0  0  0  0  0  0  0  0
    5.2310    1.7261    0.0000 C   0  0  0  0  0  0  0  0  0  0  0  0
    6.2973    2.7811    0.0000 O   0  0  0  0  0  0  0  0  0  0  0  0
    3.7842    2.1219    0.0000 C   0  0  0  0  0  0  0  0  0  0  0  0
    3.4036    3.5729    0.0000 O   0  0  0  0  0  0  0  0  0  0  0  0
    0.5855   -1.0432    0.0000 C   0  0  0  0  0  0  0  0  0  0  0  0
   -0.4807   -2.0983    0.0000 C   0  0  0  0  0  0  0  0  0  0  0  0
   -0.4101   -3.5966    0.0000 C   0  0  0  0  0  0  0  0  0  0  0  0
    0.8435   -4.4202    0.0000 O   0  0  0  0  0  0  0  0  0  0  0  0
   -1.8133   -4.1268    0.0000 O   0  0  0  0  0  0  0  0  0  0  0  0
   -2.7511   -2.9561    0.0000 C   0  0  0  0  0  0  0  0  0  0  0  0
   -1.9276   -1.7024    0.0000 C   0  0  0  0  0  0  0  0  0  0  0  0
   -3.1714   -2.0804    0.0000 C   0  0  0  0  0  0  0  0  0  0  0  0
   -3.9431   -1.8693    0.0000 C   0  0  0  0  0  0  0  0  0  0  0  0
   -4.1460   -1.0954    0.0000 C   0  0  0  0  0  0  0  0  0  0  0  0
   -6.2680   -0.5148    0.0000 C   0  0  0  0  0  0  0  0  0  0  0  0
  1  2  1  0
  2  3  2  0
  2  4  1  0
  4  5  1  0
  5  6  1  0
  6  7  1  1
  6  8  1  0
  8  9  1  0
  9 10  1  0
 10 11  1  6
 12 11  1  1
 12 13  1  0
 13 14  1  0
 14 15  1  1
 15 16  1  0
 14 17  1  0
 17 18  1  6
 17 19  1  0
 19 20  1  1
 19 21  1  0
 21 22  1  6
 10 23  1  0
 23 24  2  0
 24 25  1  0
 25 26  2  0
 25 27  1  0
 27 28  1  0
 29 28  1  1
 29 30  1  0
 30 31  1  0
 31 32  1  0
 32 33  1  1
 32  6  1  0
 29  8  1  0
 21 12  1  0
 29 24  1  0
M  END
>  <identifier>  (58) 
CNP0080285.1

>  <canonical_smiles>  (58) 
CC(=O)CC[C@]1(C)C2C[C@H](O[C@@H]3O[C@H](CO)[C@@H](O)[C@H](O)[C@H]3O)C=C3C(=O)OC[C@]32CC[C@H]1C

>  <standard_inchi>  (58) 
InChI=1S/C24H36O9/c1-12-4-7-24-11-31-21(30)15(24)8-14(9-17(24)23(12,3)6-5-13(2)26)32-22-20(29)19(28)18(27)16(10-25)33-22/h8,12,14,16-20,22,25,27-29H,4-7,9-11H2,1-3H3/t12-,14-,16-,17?,18-,19+,20-,22-,23+,24-/m1/s1

>  <standard_inchi_key>  (58) 
OOYXHYNAJPWYQC-XRGUOFIRSA-N

>  <name>  (58) 
nan

>  <iupac_name>  (58) 
(5~{S},7~{S},8~{R},10~{a}~{S})-7,8-dimethyl-7-(3-oxobutyl)-5-[(2~{R},3~{R},4~{S},5~{S},6~{R})-3,4,5-trihydroxy-6-(hydroxymethyl)tetrahydropyran-2-yl]oxy-5,6,6~{a},8,9,10-hexahydro-1~{H}-benzo[d]isobenzofuran-3-one

>  <annotation_level>  (58) 
5

>  <total_atom_count>  (58) 
69

>  <heavy_atom_count>  (58) 
33

>  <molecular_weight>  (58) 
468.54

>  <exact_molecular_weight>  (58) 
468.23593

>  <molecular_formula>  (58) 
C24H36O9

>  <alogp>  (58) 
0.47

>  <topological_polar_surface_area>  (58) 
142.75

>  <rotatable_bond_count>  (58) 
6

>  <hydrogen_bond_acceptors>  (58) 
9

>  <hydrogen_bond_donors>  (58) 
4

>  <hydrogen_bond_acceptors_lipinski>  (58) 
9

>  <hydrogen_bond_donors_lipinski>  (58) 
4

>  <lipinski_rule_of_five_violations>  (58) 
0

>  <aromatic_rings_count>  (58) 
0

>  <qed_drug_likeliness>  (58) 
0.41

>  <formal_charge>  (58) 
0

>  <fractioncsp3>  (58) 
0.83

>  <number_of_minimal_rings>  (58) 
4

>  <van_der_walls_volume>  (58) 
424.40

>  <contains_sugar>  (58) 
True

>  <contains_ring_sugars>  (58) 
True

>  <contains_linear_sugars>  (58) 
False

>  <murcko_framework>  (58) 
O1CC2=CC(OC3OCCCC3)CC4CCCCC24C1

>  <np_likeness>  (58) 
3.06

>  <chemical_class>  (58) 
Organooxygen compounds

>  <chemical_sub_class>  (58) 
Carbohydrates and carbohydrate conjugates

>  <chemical_super_class>  (58) 
Organic oxygen compounds

>  <direct_parent_classification>  (58) 
Monosaccharides

>  <np_classifier_pathway>  (58) 
Terpenoids

>  <np_classifier_superclass>  (58) 
Diterpenoids

>  <np_classifier_class>  (58) 
Colensane and Clerodane diterpenoids

>  <np_classifier_is_glycoside>  (58) 
True

>  <organisms>  (58) 
Salvia circinata

>  <collections>  (58) 
BIOFACQUIM|Latin America dataset

>  <dois>  (58) 
10.1021/acs.jnatprod.7b00155

>  <synonyms>  (58) 
(2S 5S 8R 9R 10R)-2-(O-b-D-glucopyranosyl)-neocleroda-3-en-9-oxobutyl-18 19-olide

>  <cas>  (58) 
nan

$$$$

     RDKit          2D

 33 36  0  0  0  0  0  0  0  0999 V2000
    8.0612   -0.1629    0.0000 C   0  0  0  0  0  0  0  0  0  0  0  0
    7.0722   -1.2907    0.0000 C   0  0  0  0  0  0  0  0  0  0  0  0
    5.6010   -0.9981    0.0000 C   0  0  0  0  0  0  0  0  0  0  0  0
    5.1188    0.4223    0.0000 C   0  0  0  0  0  0  0  0  0  0  0  0
    3.6476    0.7149    0.0000 C   0  0  0  0  0  0  0  0  0  0  0  0
    3.1654    2.1353    0.0000 C   0  0  0  0  0  0  0  0  0  0  0  0
    4.1544    3.2630    0.0000 C   0  0  0  0  0  0  0  0  0  0  0  0
    1.6943    2.4279    0.0000 C   0  0  0  0  0  0  0  0  0  0  0  0
    1.0662    3.7901    0.0000 C   0  0  0  0  0  0  0  0  0  0  0  0
   -0.4234    3.6137    0.0000 C   0  0  0  0  0  0  0  0  0  0  0  0
   -0.7160    2.1425    0.0000 C   0  0  0  0  0  0  0  0  0  0  0  0
   -1.9409    3.0082    0.0000 C   0  0  0  0  0  0  0  0  0  0  0  0
   -2.0051    1.3756    0.0000 C   0  0  0  0  0  0  0  0  0  0  0  0
   -3.3138    2.1085    0.0000 C   0  0  0  0  0  0  0  0  0  0  0  0
   -4.6029    1.3415    0.0000 C   0  0  0  0  0  0  0  0  0  0  0  0
   -4.5832   -0.1584    0.0000 C   0  0  0  0  0  0  0  0  0  0  0  0
   -5.8723   -0.9253    0.0000 C   0  0  0  0  0  0  0  0  0  0  0  0
   -7.3460   -1.2052    0.0000 C   0  0  0  0  0  0  0  0  0  0  0  0
   -6.4038    0.4774    0.0000 C   0  0  0  0  0  0  0  0  0  0  0  0
   -5.8527   -2.4252    0.0000 C   0  0  0  0  0  0  0  0  0  0  0  0
   -7.1418   -3.1922    0.0000 O   0  0  0  0  0  0  0  0  0  0  0  0
   -4.5439   -3.1581    0.0000 C   0  0  0  0  0  0  0  0  0  0  0  0
   -3.2548   -2.3911    0.0000 C   0  0  0  0  0  0  0  0  0  0  0  0
   -3.2745   -0.8913    0.0000 C   0  0  0  0  0  0  0  0  0  0  0  0
   -1.9657   -1.6242    0.0000 C   0  0  0  0  0  0  0  0  0  0  0  0
   -1.9854   -0.1243    0.0000 C   0  0  0  0  0  0  0  0  0  0  0  0
   -0.6766   -0.8572    0.0000 C   0  0  0  0  0  0  0  0  0  0  0  0
    0.6125   -0.0902    0.0000 C   0  0  0  0  0  0  0  0  0  0  0  0
    0.5928    1.4096    0.0000 C   0  0  0  0  0  0  0  0  0  0  0  0
    1.9710    0.8176    0.0000 C   0  0  0  0  0  0  0  0  0  0  0  0
    7.5544   -2.7111    0.0000 C   0  0  0  0  0  0  0  0  0  0  0  0
    9.0256   -3.0037    0.0000 O   0  0  0  0  0  0  0  0  0  0  0  0
    6.5654   -3.8389    0.0000 O   0  0  0  0  0  0  0  0  0  0  0  0
  1  2  1  0
  2  3  2  0
  3  4  1  0
  4  5  1  0
  5  6  1  0
  6  7  1  1
  6  8  1  0
  8  9  1  1
  9 10  1  0
 10 11  1  0
 11 12  1  6
 11 13  1  0
 13 14  2  0
 14 15  1  0
 15 16  1  0
 16 17  1  0
 17 18  1  0
 17 19  1  0
 17 20  1  0
 20 21  1  1
 20 22  1  0
 22 23  1  0
 23 24  1  0
 24 25  1  6
 24 26  1  0
 26 27  1  0
 27 28  1  0
 28 29  1  0
 29 30  1  1
  2 31  1  0
 31 32  2  0
 31 33  1  0
 29  8  1  0
 29 11  1  0
 26 13  1  0
 24 16  1  0
M  END
>  <identifier>  (59) 
CNP0235450.2

>  <canonical_smiles>  (59) 
C/C(=C\CC[C@H](C)[C@@H]1CC[C@]2(C)C3=CCC4C(C)(C)[C@H](O)CC[C@]4(C)C3CC[C@@]12C)C(=O)O

>  <standard_inchi>  (59) 
InChI=1S/C30H48O3/c1-19(9-8-10-20(2)26(32)33)21-13-17-30(7)23-11-12-24-27(3,4)25(31)15-16-28(24,5)22(23)14-18-29(21,30)6/h10-11,19,21-22,24-25,31H,8-9,12-18H2,1-7H3,(H,32,33)/b20-10+/t19-,21-,22?,24?,25+,28+,29-,30+/m0/s1

>  <standard_inchi_key>  (59) 
UILQHUKSFUOOLH-YOOZGKBQSA-N

>  <name>  (59) 
nan

>  <iupac_name>  (59) 
(~{E},6~{S})-6-[(3~{R},10~{R},13~{S},14~{S},17~{S})-3-hydroxy-4,4,10,13,14-pentamethyl-2,3,5,6,9,11,12,15,16,17-decahydro-1~{H}-cyclopenta[a]phenanthren-17-yl]-2-methyl-hept-2-enoic acid

>  <annotation_level>  (59) 
5

>  <total_atom_count>  (59) 
81

>  <heavy_atom_count>  (59) 
33

>  <molecular_weight>  (59) 
456.71

>  <exact_molecular_weight>  (59) 
456.36035

>  <molecular_formula>  (59) 
C30H48O3

>  <alogp>  (59) 
7.40

>  <topological_polar_surface_area>  (59) 
57.53

>  <rotatable_bond_count>  (59) 
5

>  <hydrogen_bond_acceptors>  (59) 
2

>  <hydrogen_bond_donors>  (59) 
2

>  <hydrogen_bond_acceptors_lipinski>  (59) 
2

>  <hydrogen_bond_donors_lipinski>  (59) 
2

>  <lipinski_rule_of_five_violations>  (59) 
1

>  <aromatic_rings_count>  (59) 
0

>  <qed_drug_likeliness>  (59) 
0.33

>  <formal_charge>  (59) 
0

>  <fractioncsp3>  (59) 
0.83

>  <number_of_minimal_rings>  (59) 
4

>  <van_der_walls_volume>  (59) 
465.42

>  <contains_sugar>  (59) 
False

>  <contains_ring_sugars>  (59) 
False

>  <contains_linear_sugars>  (59) 
False

>  <murcko_framework>  (59) 
C1=C2C3CCCC3CCC2C4CCCCC4C1

>  <np_likeness>  (59) 
3.52

>  <chemical_class>  (59) 
Steroids and steroid derivatives

>  <chemical_sub_class>  (59) 
Hydroxysteroids

>  <chemical_super_class>  (59) 
Lipids and lipid-like molecules

>  <direct_parent_classification>  (59) 
Hydroxysteroids

>  <np_classifier_pathway>  (59) 
Terpenoids

>  <np_classifier_superclass>  (59) 
Triterpenoids

>  <np_classifier_class>  (59) 
Lanostane, Tirucallane and Euphane triterpenoids

>  <np_classifier_is_glycoside>  (59) 
False

>  <organisms>  (59) 
Amphipterygium adstringens

>  <collections>  (59) 
BIOFACQUIM|Latin America dataset

>  <dois>  (59) 
10.1080/14786419.2010.534996

>  <synonyms>  (59) 
3a-hydroxymasticadienoic acid

>  <cas>  (59) 
nan

$$$$

     RDKit          2D

 33 37  0  0  0  0  0  0  0  0999 V2000
   -4.9247   -3.3018    0.0000 C   0  0  0  0  0  0  0  0  0  0  0  0
   -5.1536   -1.8194    0.0000 C   0  0  0  0  0  0  0  0  0  0  0  0
   -6.5738   -2.3023    0.0000 C   0  0  0  0  0  0  0  0  0  0  0  0
   -5.8757   -0.5047    0.0000 C   0  0  0  0  0  0  0  0  0  0  0  0
   -5.0982    0.7781    0.0000 C   0  0  0  0  0  0  0  0  0  0  0  0
   -3.5985    0.7461    0.0000 C   0  0  0  0  0  0  0  0  0  0  0  0
   -4.3207    2.0608    0.0000 C   0  0  0  0  0  0  0  0  0  0  0  0
   -5.8203    2.0928    0.0000 O   0  0  0  0  0  0  0  0  0  0  0  0
   -3.5432    3.3436    0.0000 O   0  0  0  0  0  0  0  0  0  0  0  0
   -2.8210    2.0288    0.0000 C   0  0  0  0  0  0  0  0  0  0  0  0
   -1.3214    1.9969    0.0000 C   0  0  0  0  0  0  0  0  0  0  0  0
   -0.5992    0.6821    0.0000 C   0  0  0  0  0  0  0  0  0  0  0  0
    0.1229   -0.6326    0.0000 C   0  0  0  0  0  0  0  0  0  0  0  0
   -1.3768   -0.6006    0.0000 C   0  0  0  0  0  0  0  0  0  0  0  0
   -0.6546   -1.9154    0.0000 C   0  0  0  0  0  0  0  0  0  0  0  0
    0.8450   -1.9473    0.0000 C   0  0  0  0  0  0  0  0  0  0  0  0
    1.6226   -0.6646    0.0000 C   0  0  0  0  0  0  0  0  0  0  0  0
    3.1222   -0.6966    0.0000 C   0  0  0  0  0  0  0  0  0  0  0  0
    2.3447   -1.9793    0.0000 C   0  0  0  0  0  0  0  0  0  0  0  0
    3.8444   -2.0113    0.0000 C   0  0  0  0  0  0  0  0  0  0  0  0
    5.3440   -2.0433    0.0000 C   0  0  0  0  0  0  0  0  0  0  0  0
    6.1215   -0.7605    0.0000 C   0  0  0  0  0  0  0  0  0  0  0  0
    7.6212   -0.7925    0.0000 O   0  0  0  0  0  0  0  0  0  0  0  0
    5.3994    0.5542    0.0000 C   0  0  0  0  0  0  0  0  0  0  0  0
    5.1705    2.0366    0.0000 C   0  0  0  0  0  0  0  0  0  0  0  0
    6.8196    1.0371    0.0000 C   0  0  0  0  0  0  0  0  0  0  0  0
    3.8997    0.5862    0.0000 C   0  0  0  0  0  0  0  0  0  0  0  0
    3.1776    1.9009    0.0000 C   0  0  0  0  0  0  0  0  0  0  0  0
    1.6780    1.9329    0.0000 C   0  0  0  0  0  0  0  0  0  0  0  0
    0.9004    0.6502    0.0000 C   0  0  0  0  0  0  0  0  0  0  0  0
    0.1783    1.9649    0.0000 C   0  0  0  0  0  0  0  0  0  0  0  0
   -2.8764   -0.5686    0.0000 C   0  0  0  0  0  0  0  0  0  0  0  0
   -3.6539   -1.8514    0.0000 C   0  0  0  0  0  0  0  0  0  0  0  0
  1  2  1  0
  2  3  1  0
  2  4  1  0
  4  5  1  0
  5  6  1  0
  6  7  1  1
  7  8  2  0
  7  9  1  0
  6 10  1  0
 10 11  1  0
 11 12  1  0
 12 13  1  6
 12 14  1  0
 14 15  2  0
 15 16  1  0
 16 17  1  0
 17 18  1  0
 18 19  1  1
 18 20  1  0
 20 21  1  0
 21 22  1  0
 22 23  1  6
 22 24  1  0
 24 25  1  0
 24 26  1  0
 24 27  1  0
 27 28  1  0
 28 29  1  0
 29 30  1  0
 30 31  1  1
 14 32  1  0
 32 33  1  0
 33  2  1  0
 32  6  1  0
 30 12  1  0
 30 17  1  0
 27 18  1  0
M  END
>  <identifier>  (60) 
CNP0213216.1

>  <canonical_smiles>  (60) 
CC1(C)CC[C@]2(C(=O)O)CC[C@]3(C)C(=CCC4[C@@]5(C)CC[C@@H](O)C(C)(C)C5CC[C@]43C)C2C1

>  <standard_inchi>  (60) 
InChI=1S/C30H48O3/c1-25(2)14-16-30(24(32)33)17-15-28(6)19(20(30)18-25)8-9-22-27(5)12-11-23(31)26(3,4)21(27)10-13-29(22,28)7/h8,20-23,31H,9-18H2,1-7H3,(H,32,33)/t20?,21?,22?,23-,27+,28-,29-,30+/m1/s1

>  <standard_inchi_key>  (60) 
MIJYXULNPSFWEK-LGSDIRQTSA-N

>  <name>  (60) 
oleanoic acid

>  <iupac_name>  (60) 
(4~{a}~{S},6~{a}~{S},6~{b}~{R},10~{R},12~{a}~{R})-10-hydroxy-2,2,6~{a},6~{b},9,9,12~{a}-heptamethyl-1,3,4,5,6,6~{a},7,8,8~{a},10,11,12,13,14~{b}-tetradecahydropicene-4~{a}-carboxylic acid

>  <annotation_level>  (60) 
5

>  <total_atom_count>  (60) 
81

>  <heavy_atom_count>  (60) 
33

>  <molecular_weight>  (60) 
456.71

>  <exact_molecular_weight>  (60) 
456.36035

>  <molecular_formula>  (60) 
C30H48O3

>  <alogp>  (60) 
7.23

>  <topological_polar_surface_area>  (60) 
57.53

>  <rotatable_bond_count>  (60) 
1

>  <hydrogen_bond_acceptors>  (60) 
2

>  <hydrogen_bond_donors>  (60) 
2

>  <hydrogen_bond_acceptors_lipinski>  (60) 
2

>  <hydrogen_bond_donors_lipinski>  (60) 
2

>  <lipinski_rule_of_five_violations>  (60) 
1

>  <aromatic_rings_count>  (60) 
0

>  <qed_drug_likeliness>  (60) 
0.41

>  <formal_charge>  (60) 
0

>  <fractioncsp3>  (60) 
0.90

>  <number_of_minimal_rings>  (60) 
5

>  <van_der_walls_volume>  (60) 
456.89

>  <contains_sugar>  (60) 
False

>  <contains_ring_sugars>  (60) 
False

>  <contains_linear_sugars>  (60) 
False

>  <murcko_framework>  (60) 
C1=C2C3CCCCC3CCC2C4CCC5CCCCC5C4C1

>  <np_likeness>  (60) 
3.27

>  <chemical_class>  (60) 
Prenol lipids

>  <chemical_sub_class>  (60) 
Triterpenoids

>  <chemical_super_class>  (60) 
Lipids and lipid-like molecules

>  <direct_parent_classification>  (60) 
Oleanane triterpenoids

>  <np_classifier_pathway>  (60) 
Terpenoids

>  <np_classifier_superclass>  (60) 
Triterpenoids

>  <np_classifier_class>  (60) 
Oleanane triterpenoids

>  <np_classifier_is_glycoside>  (60) 
False

>  <organisms>  (60) 
Achyranthes bidentata|Achyranthes fauriei|Achyranthes japonica|Amphipterygium adstringens|Boschniakia rossica|Cephalotaxus fortunei

>  <collections>  (60) 
BIOFACQUIM|CMAUP (cCollective molecular activities of useful plants)|Latin America dataset|NPASS|NPEdia

>  <dois>  (60) 
10.1080/14786419.2010.534996

>  <synonyms>  (60) 
Spectrum_000621|SpecPlus_000046|Spectrum2_000351|Spectrum3_000103|Spectrum4_001385|Spectrum5_000090|BSPBio_001686|KBioGR_001710|KBioSS_001101|SPECTRUM100550|DivK1c_006142|SPBio_000441|KBio1_001086|KBio2_001101|KBio2_003669|KBio2_006237|KBio3_000806|CCG-38626|SDCCGMLS-0066369.P001|NCGC00179088-01|(4aS|6aS|6bR|10R|12aR)-10-hydroxy-2|2|6a|6b|9|9|12a-heptamethyl-1|3|4|5|6|6a|7|8|8a|10|11|12|13|14b-tetradecahydropicene-4a-carboxylic acid|BRD-A31962514-001-03-4|3-epioleanolic acid|oleanoic acid

>  <cas>  (60) 
nan

$$$$

     RDKit          2D

 28 30  0  0  0  0  0  0  0  0999 V2000
   -1.1000    2.0888    0.0000 C   0  0  0  0  0  0  0  0  0  0  0  0
   -0.1094    0.9624    0.0000 C   0  0  0  0  0  0  0  0  0  0  0  0
    1.3614    1.2571    0.0000 O   0  0  0  0  0  0  0  0  0  0  0  0
    2.3519    0.1307    0.0000 C   0  0  0  0  0  0  0  0  0  0  0  0
    1.8717   -1.2904    0.0000 O   0  0  0  0  0  0  0  0  0  0  0  0
    3.8227    0.4253    0.0000 C   0  0  0  0  0  0  0  0  0  0  0  0
    4.8133   -0.7011    0.0000 C   0  0  0  0  0  0  0  0  0  0  0  0
    6.2840   -0.4064    0.0000 C   0  0  0  0  0  0  0  0  0  0  0  0
    7.2746   -1.5328    0.0000 C   0  0  0  0  0  0  0  0  0  0  0  0
    8.7454   -1.2382    0.0000 C   0  0  0  0  0  0  0  0  0  0  0  0
    9.2256    0.1829    0.0000 C   0  0  0  0  0  0  0  0  0  0  0  0
   10.6964    0.4775    0.0000 O   0  0  0  0  0  0  0  0  0  0  0  0
    8.2350    1.3093    0.0000 C   0  0  0  0  0  0  0  0  0  0  0  0
    6.7642    1.0146    0.0000 C   0  0  0  0  0  0  0  0  0  0  0  0
   -0.5896   -0.4586    0.0000 C   0  0  0  0  0  0  0  0  0  0  0  0
    0.4009   -1.5850    0.0000 O   0  0  0  0  0  0  0  0  0  0  0  0
   -2.0604   -0.7533    0.0000 C   0  0  0  0  0  0  0  0  0  0  0  0
   -3.1868   -1.7438    0.0000 C   0  0  0  0  0  0  0  0  0  0  0  0
   -3.4815   -0.2730    0.0000 C   0  0  0  0  0  0  0  0  0  0  0  0
   -4.4720    0.8534    0.0000 C   0  0  0  0  0  0  0  0  0  0  0  0
   -3.9918    2.2744    0.0000 O   0  0  0  0  0  0  0  0  0  0  0  0
   -5.9428    0.5587    0.0000 C   0  0  0  0  0  0  0  0  0  0  0  0
   -6.9334    1.6851    0.0000 C   0  0  0  0  0  0  0  0  0  0  0  0
   -8.4041    1.3905    0.0000 C   0  0  0  0  0  0  0  0  0  0  0  0
   -8.8844   -0.0306    0.0000 C   0  0  0  0  0  0  0  0  0  0  0  0
   -7.8938   -1.1570    0.0000 C   0  0  0  0  0  0  0  0  0  0  0  0
   -8.3740   -2.5780    0.0000 O   0  0  0  0  0  0  0  0  0  0  0  0
   -6.4230   -0.8623    0.0000 O   0  0  0  0  0  0  0  0  0  0  0  0
  2  1  1  6
  2  3  1  0
  3  4  1  0
  4  5  2  0
  4  6  1  0
  6  7  2  0
  7  8  1  0
  8  9  2  0
  9 10  1  0
 10 11  2  0
 11 12  1  0
 11 13  1  0
 13 14  2  0
  2 15  1  0
 15 16  2  0
 17 15  1  1
 17 18  1  0
 19 18  1  6
 19 20  1  0
 20 21  1  1
 20 22  1  0
 22 23  1  6
 23 24  1  0
 24 25  2  0
 25 26  1  0
 26 27  2  0
 26 28  1  0
 14  8  1  0
 19 17  1  0
 28 22  1  0
M  END
>  <identifier>  (61) 
CNP0246043.1

>  <canonical_smiles>  (61) 
C[C@H](OC(=O)/C=C/C1=CC=C(O)C=C1)C(=O)[C@H]1C[C@@H]1[C@H](O)[C@H]1CC=CC(=O)O1

>  <standard_inchi>  (61) 
InChI=1S/C21H22O7/c1-12(27-19(24)10-7-13-5-8-14(22)9-6-13)20(25)15-11-16(15)21(26)17-3-2-4-18(23)28-17/h2,4-10,12,15-17,21-22,26H,3,11H2,1H3/b10-7+/t12-,15-,16-,17+,21-/m0/s1

>  <standard_inchi_key>  (61) 
BJDMHAYLPGRUFH-HIELJHRRSA-N

>  <name>  (61) 
Brevipolide G

>  <iupac_name>  (61) 
[(1~{S})-2-[(1~{S},2~{S})-2-[(~{S})-hydroxy-[(2~{R})-6-oxo-2,3-dihydropyran-2-yl]methyl]cyclopropyl]-1-methyl-2-oxo-ethyl] (~{E})-3-(4-hydroxyphenyl)prop-2-enoate

>  <annotation_level>  (61) 
5

>  <total_atom_count>  (61) 
50

>  <heavy_atom_count>  (61) 
28

>  <molecular_weight>  (61) 
386.4

>  <exact_molecular_weight>  (61) 
386.13655

>  <molecular_formula>  (61) 
C21H22O7

>  <alogp>  (61) 
1.77

>  <topological_polar_surface_area>  (61) 
110.13

>  <rotatable_bond_count>  (61) 
7

>  <hydrogen_bond_acceptors>  (61) 
7

>  <hydrogen_bond_donors>  (61) 
2

>  <hydrogen_bond_acceptors_lipinski>  (61) 
7

>  <hydrogen_bond_donors_lipinski>  (61) 
2

>  <lipinski_rule_of_five_violations>  (61) 
0

>  <aromatic_rings_count>  (61) 
1

>  <qed_drug_likeliness>  (61) 
0.54

>  <formal_charge>  (61) 
0

>  <fractioncsp3>  (61) 
0.38

>  <number_of_minimal_rings>  (61) 
3

>  <van_der_walls_volume>  (61) 
346.05

>  <contains_sugar>  (61) 
False

>  <contains_ring_sugars>  (61) 
False

>  <contains_linear_sugars>  (61) 
False

>  <murcko_framework>  (61) 
O(CC=Cc1ccccc1)CCC2CC2CC3OCC=CC3

>  <np_likeness>  (61) 
2.18

>  <chemical_class>  (61) 
Cinnamic acids and derivatives

>  <chemical_sub_class>  (61) 
Hydroxycinnamic acids and derivatives

>  <chemical_super_class>  (61) 
Phenylpropanoids and polyketides

>  <direct_parent_classification>  (61) 
Hydroxycinnamic acids

>  <np_classifier_pathway>  (61) 
Shikimates and Phenylpropanoids

>  <np_classifier_superclass>  (61) 
nan

>  <np_classifier_class>  (61) 
nan

>  <np_classifier_is_glycoside>  (61) 
False

>  <organisms>  (61) 
Hyptis brevipes

>  <collections>  (61) 
BIOFACQUIM|CMAUP (cCollective molecular activities of useful plants)|Latin America dataset|NPASS

>  <dois>  (61) 
10.1021/np300740h

>  <synonyms>  (61) 
CHEMBL2337108|Brevipolides G

>  <cas>  (61) 
nan

$$$$

     RDKit          2D

 29 31  0  0  0  0  0  0  0  0999 V2000
   -1.7418   -5.4814    0.0000 C   0  0  0  0  0  0  0  0  0  0  0  0
   -1.1789   -4.0910    0.0000 O   0  0  0  0  0  0  0  0  0  0  0  0
   -2.1016   -2.9084    0.0000 C   0  0  0  0  0  0  0  0  0  0  0  0
   -3.5871   -3.1161    0.0000 C   0  0  0  0  0  0  0  0  0  0  0  0
   -4.5098   -1.9334    0.0000 C   0  0  0  0  0  0  0  0  0  0  0  0
   -3.9469   -0.5431    0.0000 C   0  0  0  0  0  0  0  0  0  0  0  0
   -4.8696    0.6396    0.0000 C   0  0  0  0  0  0  0  0  0  0  0  0
   -4.3068    2.0300    0.0000 C   0  0  0  0  0  0  0  0  0  0  0  0
   -2.8212    2.2377    0.0000 C   0  0  0  0  0  0  0  0  0  0  0  0
   -1.8985    1.0551    0.0000 O   0  0  0  0  0  0  0  0  0  0  0  0
   -2.2583    3.6281    0.0000 O   0  0  0  0  0  0  0  0  0  0  0  0
   -0.7728    3.8358    0.0000 C   0  0  0  0  0  0  0  0  0  0  0  0
   -0.2099    5.2262    0.0000 C   0  0  0  0  0  0  0  0  0  0  0  0
    0.1499    2.6532    0.0000 C   0  0  0  0  0  0  0  0  0  0  0  0
   -0.4130    1.2628    0.0000 O   0  0  0  0  0  0  0  0  0  0  0  0
    1.6354    2.8609    0.0000 C   0  0  0  0  0  0  0  0  0  0  0  0
    2.8181    3.7836    0.0000 C   0  0  0  0  0  0  0  0  0  0  0  0
    3.0258    2.2981    0.0000 C   0  0  0  0  0  0  0  0  0  0  0  0
    3.9485    1.1154    0.0000 C   0  0  0  0  0  0  0  0  0  0  0  0
    5.4340    1.3231    0.0000 O   0  0  0  0  0  0  0  0  0  0  0  0
    3.3856   -0.2750    0.0000 C   0  0  0  0  0  0  0  0  0  0  0  0
    1.9001   -0.4827    0.0000 C   0  0  0  0  0  0  0  0  0  0  0  0
    1.3372   -1.8731    0.0000 C   0  0  0  0  0  0  0  0  0  0  0  0
    2.2599   -3.0558    0.0000 C   0  0  0  0  0  0  0  0  0  0  0  0
    3.7454   -2.8480    0.0000 C   0  0  0  0  0  0  0  0  0  0  0  0
    4.6681   -4.0307    0.0000 O   0  0  0  0  0  0  0  0  0  0  0  0
    4.3083   -1.4576    0.0000 O   0  0  0  0  0  0  0  0  0  0  0  0
   -2.4614   -0.3353    0.0000 C   0  0  0  0  0  0  0  0  0  0  0  0
   -1.5387   -1.5180    0.0000 C   0  0  0  0  0  0  0  0  0  0  0  0
  1  2  1  0
  2  3  1  0
  3  4  2  0
  4  5  1  0
  5  6  2  0
  6  7  1  0
  7  8  2  0
  8  9  1  0
  9 10  2  0
  9 11  1  0
 11 12  1  0
 12 13  1  1
 12 14  1  0
 14 15  2  0
 16 14  1  1
 16 17  1  0
 18 17  1  6
 18 19  1  0
 19 20  1  6
 19 21  1  0
 21 22  1  6
 22 23  1  0
 23 24  2  0
 24 25  1  0
 25 26  2  0
 25 27  1  0
  6 28  1  0
 28 29  2  0
 29  3  1  0
 18 16  1  0
 27 21  1  0
M  END
>  <identifier>  (62) 
CNP0280233.1

>  <canonical_smiles>  (62) 
COC1=CC=C(/C=C\C(=O)O[C@@H](C)C(=O)[C@H]2C[C@@H]2[C@H](O)[C@H]2CC=CC(=O)O2)C=C1

>  <standard_inchi>  (62) 
InChI=1S/C22H24O7/c1-13(28-20(24)11-8-14-6-9-15(27-2)10-7-14)21(25)16-12-17(16)22(26)18-4-3-5-19(23)29-18/h3,5-11,13,16-18,22,26H,4,12H2,1-2H3/b11-8-/t13-,16-,17-,18+,22-/m0/s1

>  <standard_inchi_key>  (62) 
XGNLXIVLBLLTIG-JKMWVEESSA-N

>  <name>  (62) 
Brevipolide I

>  <iupac_name>  (62) 
[(1~{S})-2-[(1~{S},2~{S})-2-[(~{S})-hydroxy-[(2~{R})-6-oxo-2,3-dihydropyran-2-yl]methyl]cyclopropyl]-1-methyl-2-oxo-ethyl] (~{Z})-3-(4-methoxyphenyl)prop-2-enoate

>  <annotation_level>  (62) 
5

>  <total_atom_count>  (62) 
53

>  <heavy_atom_count>  (62) 
29

>  <molecular_weight>  (62) 
400.43

>  <exact_molecular_weight>  (62) 
400.1522

>  <molecular_formula>  (62) 
C22H24O7

>  <alogp>  (62) 
2.08

>  <topological_polar_surface_area>  (62) 
99.13

>  <rotatable_bond_count>  (62) 
8

>  <hydrogen_bond_acceptors>  (62) 
7

>  <hydrogen_bond_donors>  (62) 
1

>  <hydrogen_bond_acceptors_lipinski>  (62) 
7

>  <hydrogen_bond_donors_lipinski>  (62) 
1

>  <lipinski_rule_of_five_violations>  (62) 
0

>  <aromatic_rings_count>  (62) 
1

>  <qed_drug_likeliness>  (62) 
0.53

>  <formal_charge>  (62) 
0

>  <fractioncsp3>  (62) 
0.41

>  <number_of_minimal_rings>  (62) 
3

>  <van_der_walls_volume>  (62) 
363.30

>  <contains_sugar>  (62) 
False

>  <contains_ring_sugars>  (62) 
False

>  <contains_linear_sugars>  (62) 
False

>  <murcko_framework>  (62) 
O(CC=Cc1ccccc1)CCC2CC2CC3OCC=CC3

>  <np_likeness>  (62) 
1.90

>  <chemical_class>  (62) 
Cinnamic acids and derivatives

>  <chemical_sub_class>  (62) 
Cinnamic acids and derivatives

>  <chemical_super_class>  (62) 
Phenylpropanoids and polyketides

>  <direct_parent_classification>  (62) 
Cinnamic acids and derivatives

>  <np_classifier_pathway>  (62) 
Shikimates and Phenylpropanoids

>  <np_classifier_superclass>  (62) 
nan

>  <np_classifier_class>  (62) 
nan

>  <np_classifier_is_glycoside>  (62) 
False

>  <organisms>  (62) 
Hyptis brevipes

>  <collections>  (62) 
BIOFACQUIM|CMAUP (cCollective molecular activities of useful plants)|Latin America dataset|NPASS|Super Natural II

>  <dois>  (62) 
10.1021/np300740h

>  <synonyms>  (62) 
CHEMBL2336689|Brevipolides I

>  <cas>  (62) 
nan

$$$$

     RDKit          2D

 29 31  0  0  0  0  0  0  0  0999 V2000
  -11.2879    0.5508    0.0000 C   0  0  0  0  0  0  0  0  0  0  0  0
  -10.2898   -0.5690    0.0000 O   0  0  0  0  0  0  0  0  0  0  0  0
   -8.8210   -0.2645    0.0000 C   0  0  0  0  0  0  0  0  0  0  0  0
   -8.3503    1.1598    0.0000 C   0  0  0  0  0  0  0  0  0  0  0  0
   -6.8816    1.4643    0.0000 C   0  0  0  0  0  0  0  0  0  0  0  0
   -5.8835    0.3446    0.0000 C   0  0  0  0  0  0  0  0  0  0  0  0
   -4.4147    0.6491    0.0000 C   0  0  0  0  0  0  0  0  0  0  0  0
   -3.4166   -0.4706    0.0000 C   0  0  0  0  0  0  0  0  0  0  0  0
   -1.9478   -0.1661    0.0000 C   0  0  0  0  0  0  0  0  0  0  0  0
   -1.4772    1.2581    0.0000 O   0  0  0  0  0  0  0  0  0  0  0  0
   -0.9497   -1.2859    0.0000 O   0  0  0  0  0  0  0  0  0  0  0  0
    0.5190   -0.9813    0.0000 C   0  0  0  0  0  0  0  0  0  0  0  0
    1.5171   -2.1011    0.0000 C   0  0  0  0  0  0  0  0  0  0  0  0
    0.9897    0.4429    0.0000 C   0  0  0  0  0  0  0  0  0  0  0  0
   -0.0084    1.5626    0.0000 O   0  0  0  0  0  0  0  0  0  0  0  0
    2.4584    0.7474    0.0000 C   0  0  0  0  0  0  0  0  0  0  0  0
    3.5782    1.7455    0.0000 C   0  0  0  0  0  0  0  0  0  0  0  0
    3.8827    0.2767    0.0000 C   0  0  0  0  0  0  0  0  0  0  0  0
    4.8808   -0.8430    0.0000 C   0  0  0  0  0  0  0  0  0  0  0  0
    4.4101   -2.2672    0.0000 O   0  0  0  0  0  0  0  0  0  0  0  0
    6.3496   -0.5385    0.0000 C   0  0  0  0  0  0  0  0  0  0  0  0
    7.3477   -1.6582    0.0000 C   0  0  0  0  0  0  0  0  0  0  0  0
    8.8164   -1.3537    0.0000 C   0  0  0  0  0  0  0  0  0  0  0  0
    9.2871    0.0706    0.0000 C   0  0  0  0  0  0  0  0  0  0  0  0
    8.2890    1.1903    0.0000 C   0  0  0  0  0  0  0  0  0  0  0  0
    8.7597    2.6145    0.0000 O   0  0  0  0  0  0  0  0  0  0  0  0
    6.8202    0.8858    0.0000 O   0  0  0  0  0  0  0  0  0  0  0  0
   -6.3541   -1.0797    0.0000 C   0  0  0  0  0  0  0  0  0  0  0  0
   -7.8229   -1.3842    0.0000 C   0  0  0  0  0  0  0  0  0  0  0  0
  1  2  1  0
  2  3  1  0
  3  4  2  0
  4  5  1  0
  5  6  2  0
  6  7  1  0
  7  8  2  0
  8  9  1  0
  9 10  2  0
  9 11  1  0
 11 12  1  0
 12 13  1  6
 12 14  1  0
 14 15  2  0
 16 14  1  1
 16 17  1  0
 18 17  1  6
 18 19  1  0
 19 20  1  1
 19 21  1  0
 21 22  1  6
 22 23  1  0
 23 24  2  0
 24 25  1  0
 25 26  2  0
 25 27  1  0
  6 28  1  0
 28 29  2  0
 29  3  1  0
 18 16  1  0
 27 21  1  0
M  END
>  <identifier>  (63) 
CNP0280233.2

>  <canonical_smiles>  (63) 
COC1=CC=C(/C=C/C(=O)O[C@@H](C)C(=O)[C@H]2C[C@@H]2[C@H](O)[C@H]2CC=CC(=O)O2)C=C1

>  <standard_inchi>  (63) 
InChI=1S/C22H24O7/c1-13(28-20(24)11-8-14-6-9-15(27-2)10-7-14)21(25)16-12-17(16)22(26)18-4-3-5-19(23)29-18/h3,5-11,13,16-18,22,26H,4,12H2,1-2H3/b11-8+/t13-,16-,17-,18+,22-/m0/s1

>  <standard_inchi_key>  (63) 
XGNLXIVLBLLTIG-FMRMVBGOSA-N

>  <name>  (63) 
Brevipolide H

>  <iupac_name>  (63) 
[(1~{S})-2-[(1~{S},2~{S})-2-[(~{S})-hydroxy-[(2~{R})-6-oxo-2,3-dihydropyran-2-yl]methyl]cyclopropyl]-1-methyl-2-oxo-ethyl] (~{E})-3-(4-methoxyphenyl)prop-2-enoate

>  <annotation_level>  (63) 
5

>  <total_atom_count>  (63) 
53

>  <heavy_atom_count>  (63) 
29

>  <molecular_weight>  (63) 
400.43

>  <exact_molecular_weight>  (63) 
400.1522

>  <molecular_formula>  (63) 
C22H24O7

>  <alogp>  (63) 
2.08

>  <topological_polar_surface_area>  (63) 
99.13

>  <rotatable_bond_count>  (63) 
8

>  <hydrogen_bond_acceptors>  (63) 
7

>  <hydrogen_bond_donors>  (63) 
1

>  <hydrogen_bond_acceptors_lipinski>  (63) 
7

>  <hydrogen_bond_donors_lipinski>  (63) 
1

>  <lipinski_rule_of_five_violations>  (63) 
0

>  <aromatic_rings_count>  (63) 
1

>  <qed_drug_likeliness>  (63) 
0.53

>  <formal_charge>  (63) 
0

>  <fractioncsp3>  (63) 
0.41

>  <number_of_minimal_rings>  (63) 
3

>  <van_der_walls_volume>  (63) 
362.70

>  <contains_sugar>  (63) 
False

>  <contains_ring_sugars>  (63) 
False

>  <contains_linear_sugars>  (63) 
False

>  <murcko_framework>  (63) 
O(CC=Cc1ccccc1)CCC2CC2CC3OCC=CC3

>  <np_likeness>  (63) 
1.90

>  <chemical_class>  (63) 
Cinnamic acids and derivatives

>  <chemical_sub_class>  (63) 
Cinnamic acids and derivatives

>  <chemical_super_class>  (63) 
Phenylpropanoids and polyketides

>  <direct_parent_classification>  (63) 
Cinnamic acids and derivatives

>  <np_classifier_pathway>  (63) 
Shikimates and Phenylpropanoids

>  <np_classifier_superclass>  (63) 
nan

>  <np_classifier_class>  (63) 
nan

>  <np_classifier_is_glycoside>  (63) 
False

>  <organisms>  (63) 
Hyptis brevipes

>  <collections>  (63) 
BIOFACQUIM|CMAUP (cCollective molecular activities of useful plants)|Latin America dataset|NPASS

>  <dois>  (63) 
10.1021/np300740h

>  <synonyms>  (63) 
CHEMBL2336688|Brevipolides H

>  <cas>  (63) 
nan

$$$$

     RDKit          2D

 30 32  0  0  0  0  0  0  0  0999 V2000
  -10.9967    0.8598    0.0000 C   0  0  0  0  0  0  0  0  0  0  0  0
  -10.0207   -0.2793    0.0000 O   0  0  0  0  0  0  0  0  0  0  0  0
   -8.5463   -0.0035    0.0000 C   0  0  0  0  0  0  0  0  0  0  0  0
   -8.0478    1.4112    0.0000 C   0  0  0  0  0  0  0  0  0  0  0  0
   -6.5734    1.6869    0.0000 C   0  0  0  0  0  0  0  0  0  0  0  0
   -5.5974    0.5479    0.0000 C   0  0  0  0  0  0  0  0  0  0  0  0
   -4.1229    0.8236    0.0000 C   0  0  0  0  0  0  0  0  0  0  0  0
   -3.1469   -0.3155    0.0000 C   0  0  0  0  0  0  0  0  0  0  0  0
   -1.6725   -0.0398    0.0000 C   0  0  0  0  0  0  0  0  0  0  0  0
   -1.1740    1.3750    0.0000 O   0  0  0  0  0  0  0  0  0  0  0  0
   -0.6965   -1.1788    0.0000 O   0  0  0  0  0  0  0  0  0  0  0  0
    0.7779   -0.9031    0.0000 C   0  0  0  0  0  0  0  0  0  0  0  0
    1.7539   -2.0422    0.0000 C   0  0  0  0  0  0  0  0  0  0  0  0
    1.2764    0.5116    0.0000 C   0  0  0  0  0  0  0  0  0  0  0  0
    0.3004    1.6507    0.0000 O   0  0  0  0  0  0  0  0  0  0  0  0
    2.7508    0.7873    0.0000 C   0  0  0  0  0  0  0  0  0  0  0  0
    3.8899    1.7633    0.0000 C   0  0  0  0  0  0  0  0  0  0  0  0
    4.1656    0.2889    0.0000 C   0  0  0  0  0  0  0  0  0  0  0  0
    5.1416   -0.8502    0.0000 C   0  0  0  0  0  0  0  0  0  0  0  0
    4.6431   -2.2649    0.0000 O   0  0  0  0  0  0  0  0  0  0  0  0
    6.6160   -0.5745    0.0000 C   0  0  0  0  0  0  0  0  0  0  0  0
    7.5920   -1.7135    0.0000 C   0  0  0  0  0  0  0  0  0  0  0  0
    9.0665   -1.4378    0.0000 C   0  0  0  0  0  0  0  0  0  0  0  0
    9.5649   -0.0231    0.0000 C   0  0  0  0  0  0  0  0  0  0  0  0
    8.5889    1.1160    0.0000 C   0  0  0  0  0  0  0  0  0  0  0  0
    9.0874    2.5307    0.0000 O   0  0  0  0  0  0  0  0  0  0  0  0
    7.1145    0.8403    0.0000 O   0  0  0  0  0  0  0  0  0  0  0  0
   -6.0958   -0.8669    0.0000 C   0  0  0  0  0  0  0  0  0  0  0  0
   -7.5703   -1.1426    0.0000 C   0  0  0  0  0  0  0  0  0  0  0  0
   -8.0687   -2.5574    0.0000 O   0  0  0  0  0  0  0  0  0  0  0  0
  1  2  1  0
  2  3  1  0
  3  4  2  0
  4  5  1  0
  5  6  2  0
  6  7  1  0
  7  8  2  0
  8  9  1  0
  9 10  2  0
  9 11  1  0
 11 12  1  0
 12 13  1  6
 12 14  1  0
 14 15  2  0
 16 14  1  1
 16 17  1  0
 18 17  1  6
 18 19  1  0
 19 20  1  1
 19 21  1  0
 21 22  1  6
 22 23  1  0
 23 24  2  0
 24 25  1  0
 25 26  2  0
 25 27  1  0
  6 28  1  0
 28 29  2  0
 29 30  1  0
 29  3  1  0
 18 16  1  0
 27 21  1  0
M  END
>  <identifier>  (64) 
CNP0231605.1

>  <canonical_smiles>  (64) 
COC1=CC=C(/C=C/C(=O)O[C@@H](C)C(=O)[C@H]2C[C@@H]2[C@H](O)[C@H]2CC=CC(=O)O2)C=C1O

>  <standard_inchi>  (64) 
InChI=1S/C22H24O8/c1-12(29-20(25)9-7-13-6-8-17(28-2)16(23)10-13)21(26)14-11-15(14)22(27)18-4-3-5-19(24)30-18/h3,5-10,12,14-15,18,22-23,27H,4,11H2,1-2H3/b9-7+/t12-,14-,15-,18+,22-/m0/s1

>  <standard_inchi_key>  (64) 
BDIGJZNTLJAZGG-YVGDPVPUSA-N

>  <name>  (64) 
Brevipolide J

>  <iupac_name>  (64) 
[(1~{S})-2-[(1~{S},2~{S})-2-[(~{S})-hydroxy-[(2~{R})-6-oxo-2,3-dihydropyran-2-yl]methyl]cyclopropyl]-1-methyl-2-oxo-ethyl] (~{E})-3-(3-hydroxy-4-methoxy-phenyl)prop-2-enoate

>  <annotation_level>  (64) 
5

>  <total_atom_count>  (64) 
54

>  <heavy_atom_count>  (64) 
30

>  <molecular_weight>  (64) 
416.43

>  <exact_molecular_weight>  (64) 
416.14712

>  <molecular_formula>  (64) 
C22H24O8

>  <alogp>  (64) 
1.78

>  <topological_polar_surface_area>  (64) 
119.36

>  <rotatable_bond_count>  (64) 
8

>  <hydrogen_bond_acceptors>  (64) 
8

>  <hydrogen_bond_donors>  (64) 
2

>  <hydrogen_bond_acceptors_lipinski>  (64) 
8

>  <hydrogen_bond_donors_lipinski>  (64) 
2

>  <lipinski_rule_of_five_violations>  (64) 
0

>  <aromatic_rings_count>  (64) 
1

>  <qed_drug_likeliness>  (64) 
0.49

>  <formal_charge>  (64) 
0

>  <fractioncsp3>  (64) 
0.41

>  <number_of_minimal_rings>  (64) 
3

>  <van_der_walls_volume>  (64) 
371.80

>  <contains_sugar>  (64) 
False

>  <contains_ring_sugars>  (64) 
False

>  <contains_linear_sugars>  (64) 
False

>  <murcko_framework>  (64) 
O(CC=Cc1ccccc1)CCC2CC2CC3OCC=CC3

>  <np_likeness>  (64) 
2.12

>  <chemical_class>  (64) 
Cinnamic acids and derivatives

>  <chemical_sub_class>  (64) 
Hydroxycinnamic acids and derivatives

>  <chemical_super_class>  (64) 
Phenylpropanoids and polyketides

>  <direct_parent_classification>  (64) 
Hydroxycinnamic acids

>  <np_classifier_pathway>  (64) 
Polyketides

>  <np_classifier_superclass>  (64) 
nan

>  <np_classifier_class>  (64) 
nan

>  <np_classifier_is_glycoside>  (64) 
False

>  <organisms>  (64) 
Hyptis brevipes

>  <collections>  (64) 
BIOFACQUIM|CMAUP (cCollective molecular activities of useful plants)|Latin America dataset|NPASS

>  <dois>  (64) 
10.1021/np300740h

>  <synonyms>  (64) 
CHEMBL2337107|Brevipolides J

>  <cas>  (64) 
nan

$$$$

     RDKit          2D

 16 17  0  0  0  0  0  0  0  0999 V2000
   -4.1318    1.3692    0.0000 C   0  0  0  0  0  0  0  0  0  0  0  0
   -3.6393   -0.0476    0.0000 C   0  0  0  0  0  0  0  0  0  0  0  0
   -4.6201   -1.1826    0.0000 O   0  0  0  0  0  0  0  0  0  0  0  0
   -2.1660   -0.3295    0.0000 C   0  0  0  0  0  0  0  0  0  0  0  0
   -1.6735   -1.7464    0.0000 C   0  0  0  0  0  0  0  0  0  0  0  0
   -0.2002   -2.0283    0.0000 C   0  0  0  0  0  0  0  0  0  0  0  0
    0.7805   -0.8933    0.0000 C   0  0  0  0  0  0  0  0  0  0  0  0
    2.2538   -1.1752    0.0000 O   0  0  0  0  0  0  0  0  0  0  0  0
    3.2346   -0.0403    0.0000 C   0  0  0  0  0  0  0  0  0  0  0  0
    4.5443    0.6908    0.0000 C   0  0  0  0  0  0  0  0  0  0  0  0
    4.1820   -1.2032    0.0000 C   0  0  0  0  0  0  0  0  0  0  0  0
    2.7420    1.3766    0.0000 C   0  0  0  0  0  0  0  0  0  0  0  0
    1.2688    1.6585    0.0000 C   0  0  0  0  0  0  0  0  0  0  0  0
    0.2880    0.5235    0.0000 C   0  0  0  0  0  0  0  0  0  0  0  0
   -1.1853    0.8054    0.0000 C   0  0  0  0  0  0  0  0  0  0  0  0
   -1.6778    2.2223    0.0000 O   0  0  0  0  0  0  0  0  0  0  0  0
  1  2  1  0
  2  3  2  0
  2  4  1  0
  4  5  2  0
  5  6  1  0
  6  7  2  0
  7  8  1  0
  8  9  1  0
  9 10  1  0
  9 11  1  0
  9 12  1  0
 12 13  2  0
 13 14  1  0
 14 15  2  0
 15 16  1  0
 15  4  1  0
 14  7  1  0
M  END
>  <identifier>  (65) 
CNP0256596.0

>  <canonical_smiles>  (65) 
CC(=O)C1=CC=C2OC(C)(C)C=CC2=C1O

>  <standard_inchi>  (65) 
InChI=1S/C13H14O3/c1-8(14)9-4-5-11-10(12(9)15)6-7-13(2,3)16-11/h4-7,15H,1-3H3

>  <standard_inchi_key>  (65) 
GHZRKUIAWAOWRH-UHFFFAOYSA-N

>  <name>  (65) 
24672-84-2

>  <iupac_name>  (65) 
1-(5-hydroxy-2,2-dimethyl-chromen-6-yl)ethanone

>  <annotation_level>  (65) 
5

>  <total_atom_count>  (65) 
30

>  <heavy_atom_count>  (65) 
16

>  <molecular_weight>  (65) 
218.25

>  <exact_molecular_weight>  (65) 
218.09429

>  <molecular_formula>  (65) 
C13H14O3

>  <alogp>  (65) 
2.78

>  <topological_polar_surface_area>  (65) 
46.53

>  <rotatable_bond_count>  (65) 
1

>  <hydrogen_bond_acceptors>  (65) 
3

>  <hydrogen_bond_donors>  (65) 
1

>  <hydrogen_bond_acceptors_lipinski>  (65) 
3

>  <hydrogen_bond_donors_lipinski>  (65) 
1

>  <lipinski_rule_of_five_violations>  (65) 
0

>  <aromatic_rings_count>  (65) 
1

>  <qed_drug_likeliness>  (65) 
0.74

>  <formal_charge>  (65) 
0

>  <fractioncsp3>  (65) 
0.31

>  <number_of_minimal_rings>  (65) 
2

>  <van_der_walls_volume>  (65) 
201.89

>  <contains_sugar>  (65) 
False

>  <contains_ring_sugars>  (65) 
False

>  <contains_linear_sugars>  (65) 
False

>  <murcko_framework>  (65) 
O1c2ccccc2C=CC1

>  <np_likeness>  (65) 
2.19

>  <chemical_class>  (65) 
Benzopyrans

>  <chemical_sub_class>  (65) 
1-benzopyrans

>  <chemical_super_class>  (65) 
Organoheterocyclic compounds

>  <direct_parent_classification>  (65) 
2,2-dimethyl-1-benzopyrans

>  <np_classifier_pathway>  (65) 
Terpenoids

>  <np_classifier_superclass>  (65) 
Meroterpenoids

>  <np_classifier_class>  (65) 
Merohemiterpenoids

>  <np_classifier_is_glycoside>  (65) 
False

>  <organisms>  (65) 
Brickellia cavanillesii

>  <collections>  (65) 
BIOFACQUIM|Latin America dataset|Super Natural II|UNPD (Universal Natural Products Database)

>  <dois>  (65) 
10.1021/np300204p

>  <synonyms>  (65) 
Demethylisoencecalin|1-(5-hydroxy-2|2-dimethylchromen-6-yl)ethanone|Ethanone| 1-(5-hydroxy-2|2-dimethyl-2H-1-benzopyran-6-yl)-|Caleochromene A|SCHEMBL7157612|CHEMBL2287247|GHZRKUIAWAOWRH-UHFFFAOYSA-N|DTXSID501206553|AKOS022652859|FS-7360|HY-W783267|6-acetyl-5-hydroxy-2|2-dimethylchromene|CS-0857900|G72017|1-(5-Hydroxy-2|2-dimethyl-2H-1-benzopyran-6-yl)ethanone

>  <cas>  (65) 
nan

$$$$

     RDKit          2D

 17 18  0  0  0  0  0  0  0  0999 V2000
   -4.4935   -1.3215    0.0000 C   0  0  0  0  0  0  0  0  0  0  0  0
   -3.5909   -0.1235    0.0000 C   0  0  0  0  0  0  0  0  0  0  0  0
   -4.9275    0.5574    0.0000 C   0  0  0  0  0  0  0  0  0  0  0  0
   -3.1525    1.3110    0.0000 C   0  0  0  0  0  0  0  0  0  0  0  0
   -1.6909    1.6485    0.0000 C   0  0  0  0  0  0  0  0  0  0  0  0
   -0.6678    0.5516    0.0000 C   0  0  0  0  0  0  0  0  0  0  0  0
   -1.1063   -0.8829    0.0000 C   0  0  0  0  0  0  0  0  0  0  0  0
   -0.0832   -1.9798    0.0000 C   0  0  0  0  0  0  0  0  0  0  0  0
    1.3783   -1.6423    0.0000 C   0  0  0  0  0  0  0  0  0  0  0  0
    1.8168   -0.2078    0.0000 C   0  0  0  0  0  0  0  0  0  0  0  0
    3.2783    0.1297    0.0000 C   0  0  0  0  0  0  0  0  0  0  0  0
    3.7167    1.5642    0.0000 O   0  0  0  0  0  0  0  0  0  0  0  0
    4.3014   -0.9672    0.0000 C   0  0  0  0  0  0  0  0  0  0  0  0
    5.7629   -0.6296    0.0000 O   0  0  0  0  0  0  0  0  0  0  0  0
    0.7937    0.8891    0.0000 C   0  0  0  0  0  0  0  0  0  0  0  0
    1.2321    2.3236    0.0000 O   0  0  0  0  0  0  0  0  0  0  0  0
   -2.5678   -1.2205    0.0000 O   0  0  0  0  0  0  0  0  0  0  0  0
  1  2  1  0
  2  3  1  0
  2  4  1  0
  4  5  2  0
  5  6  1  0
  6  7  2  0
  7  8  1  0
  8  9  2  0
  9 10  1  0
 10 11  1  0
 11 12  2  0
 11 13  1  0
 13 14  1  0
 10 15  2  0
 15 16  1  0
  7 17  1  0
 17  2  1  0
 15  6  1  0
M  END
>  <identifier>  (66) 
CNP0267978.0

>  <canonical_smiles>  (66) 
CC1(C)C=CC2=C(C=CC(C(=O)CO)=C2O)O1

>  <standard_inchi>  (66) 
InChI=1S/C13H14O4/c1-13(2)6-5-9-11(17-13)4-3-8(12(9)16)10(15)7-14/h3-6,14,16H,7H2,1-2H3

>  <standard_inchi_key>  (66) 
KIOAAZWXERJXQO-UHFFFAOYSA-N

>  <name>  (66) 
2-hydroxy-1-(5-hydroxy-2,2-dimethylchromen-6-yl)ethanone

>  <iupac_name>  (66) 
2-hydroxy-1-(5-hydroxy-2,2-dimethyl-chromen-6-yl)ethanone

>  <annotation_level>  (66) 
5

>  <total_atom_count>  (66) 
31

>  <heavy_atom_count>  (66) 
17

>  <molecular_weight>  (66) 
234.25

>  <exact_molecular_weight>  (66) 
234.08921

>  <molecular_formula>  (66) 
C13H14O4

>  <alogp>  (66) 
1.75

>  <topological_polar_surface_area>  (66) 
66.76

>  <rotatable_bond_count>  (66) 
2

>  <hydrogen_bond_acceptors>  (66) 
4

>  <hydrogen_bond_donors>  (66) 
2

>  <hydrogen_bond_acceptors_lipinski>  (66) 
4

>  <hydrogen_bond_donors_lipinski>  (66) 
2

>  <lipinski_rule_of_five_violations>  (66) 
0

>  <aromatic_rings_count>  (66) 
1

>  <qed_drug_likeliness>  (66) 
0.76

>  <formal_charge>  (66) 
0

>  <fractioncsp3>  (66) 
0.31

>  <number_of_minimal_rings>  (66) 
2

>  <van_der_walls_volume>  (66) 
209.91

>  <contains_sugar>  (66) 
False

>  <contains_ring_sugars>  (66) 
False

>  <contains_linear_sugars>  (66) 
False

>  <murcko_framework>  (66) 
O1c2ccccc2C=CC1

>  <np_likeness>  (66) 
2.39

>  <chemical_class>  (66) 
Benzopyrans

>  <chemical_sub_class>  (66) 
1-benzopyrans

>  <chemical_super_class>  (66) 
Organoheterocyclic compounds

>  <direct_parent_classification>  (66) 
2,2-dimethyl-1-benzopyrans

>  <np_classifier_pathway>  (66) 
Terpenoids

>  <np_classifier_superclass>  (66) 
Meroterpenoids

>  <np_classifier_class>  (66) 
Merohemiterpenoids

>  <np_classifier_is_glycoside>  (66) 
False

>  <organisms>  (66) 
Brickellia cavanillesii

>  <collections>  (66) 
BIOFACQUIM|Latin America dataset|NPASS|UNPD (Universal Natural Products Database)

>  <dois>  (66) 
10.1021/np300204p

>  <synonyms>  (66) 
CHEMBL2047549|BDBM50430026|6-Acetoxyacetyl-5-hydroxy-2 2-dimethyl-2H-chromene

>  <cas>  (66) 
nan

$$$$

     RDKit          2D

 21 23  0  0  0  0  0  0  0  0999 V2000
   -6.2531   -2.1726    0.0000 C   0  0  0  0  0  0  0  0  0  0  0  0
   -4.7846   -2.4785    0.0000 O   0  0  0  0  0  0  0  0  0  0  0  0
   -3.7855   -1.3597    0.0000 C   0  0  0  0  0  0  0  0  0  0  0  0
   -4.2548    0.0650    0.0000 C   0  0  0  0  0  0  0  0  0  0  0  0
   -3.2556    1.1837    0.0000 C   0  0  0  0  0  0  0  0  0  0  0  0
   -3.7249    2.6084    0.0000 O   0  0  0  0  0  0  0  0  0  0  0  0
   -1.7871    0.8778    0.0000 C   0  0  0  0  0  0  0  0  0  0  0  0
   -0.7879    1.9966    0.0000 C   0  0  0  0  0  0  0  0  0  0  0  0
   -1.2572    3.4213    0.0000 O   0  0  0  0  0  0  0  0  0  0  0  0
    0.6806    1.6906    0.0000 C   0  0  0  0  0  0  0  0  0  0  0  0
    1.1498    0.2659    0.0000 C   0  0  0  0  0  0  0  0  0  0  0  0
    2.6183   -0.0400    0.0000 C   0  0  0  0  0  0  0  0  0  0  0  0
    3.0876   -1.4647    0.0000 C   0  0  0  0  0  0  0  0  0  0  0  0
    4.5561   -1.7706    0.0000 C   0  0  0  0  0  0  0  0  0  0  0  0
    5.5552   -0.6519    0.0000 C   0  0  0  0  0  0  0  0  0  0  0  0
    7.0237   -0.9578    0.0000 O   0  0  0  0  0  0  0  0  0  0  0  0
    5.0860    0.7728    0.0000 C   0  0  0  0  0  0  0  0  0  0  0  0
    3.6175    1.0788    0.0000 C   0  0  0  0  0  0  0  0  0  0  0  0
    0.1507   -0.8528    0.0000 O   0  0  0  0  0  0  0  0  0  0  0  0
   -1.3178   -0.5469    0.0000 C   0  0  0  0  0  0  0  0  0  0  0  0
   -2.3170   -1.6657    0.0000 C   0  0  0  0  0  0  0  0  0  0  0  0
  1  2  1  0
  2  3  1  0
  3  4  2  0
  4  5  1  0
  5  6  1  0
  5  7  2  0
  7  8  1  0
  8  9  2  0
  8 10  1  0
 10 11  2  0
 11 12  1  0
 12 13  2  0
 13 14  1  0
 14 15  2  0
 15 16  1  0
 15 17  1  0
 17 18  2  0
 11 19  1  0
 19 20  1  0
 20 21  2  0
 21  3  1  0
 20  7  1  0
 18 12  1  0
M  END
>  <identifier>  (67) 
CNP0145919.0

>  <canonical_smiles>  (67) 
COC1=CC(O)=C2C(=O)C=C(C3=CC=C(O)C=C3)OC2=C1

>  <standard_inchi>  (67) 
InChI=1S/C16H12O5/c1-20-11-6-12(18)16-13(19)8-14(21-15(16)7-11)9-2-4-10(17)5-3-9/h2-8,17-18H,1H3

>  <standard_inchi_key>  (67) 
JPMYFOBNRRGFNO-UHFFFAOYSA-N

>  <name>  (67) 
Genkwanin

>  <iupac_name>  (67) 
5-hydroxy-2-(4-hydroxyphenyl)-7-methoxy-chromen-4-one

>  <annotation_level>  (67) 
5

>  <total_atom_count>  (67) 
33

>  <heavy_atom_count>  (67) 
21

>  <molecular_weight>  (67) 
284.27

>  <exact_molecular_weight>  (67) 
284.06847

>  <molecular_formula>  (67) 
C16H12O5

>  <alogp>  (67) 
2.88

>  <topological_polar_surface_area>  (67) 
79.90

>  <rotatable_bond_count>  (67) 
2

>  <hydrogen_bond_acceptors>  (67) 
5

>  <hydrogen_bond_donors>  (67) 
2

>  <hydrogen_bond_acceptors_lipinski>  (67) 
5

>  <hydrogen_bond_donors_lipinski>  (67) 
2

>  <lipinski_rule_of_five_violations>  (67) 
0

>  <aromatic_rings_count>  (67) 
3

>  <qed_drug_likeliness>  (67) 
0.76

>  <formal_charge>  (67) 
0

>  <fractioncsp3>  (67) 
0.06

>  <number_of_minimal_rings>  (67) 
3

>  <van_der_walls_volume>  (67) 
238.83

>  <contains_sugar>  (67) 
False

>  <contains_ring_sugars>  (67) 
False

>  <contains_linear_sugars>  (67) 
False

>  <murcko_framework>  (67) 
O1c2ccccc2CC=C1c3ccccc3

>  <np_likeness>  (67) 
1.14

>  <chemical_class>  (67) 
Flavonoids

>  <chemical_sub_class>  (67) 
O-methylated flavonoids

>  <chemical_super_class>  (67) 
Phenylpropanoids and polyketides

>  <direct_parent_classification>  (67) 
7-O-methylated flavonoids

>  <np_classifier_pathway>  (67) 
Shikimates and Phenylpropanoids

>  <np_classifier_superclass>  (67) 
Flavonoids

>  <np_classifier_class>  (67) 
Flavones

>  <np_classifier_is_glycoside>  (67) 
False

>  <organisms>  (67) 
Acacia constricta|Acacia sutherlandii|Acanthopanax spinosus|Aconitum variegatum|Acridocarpus vivy|Acrocarpia paniculata|Amaranthus hybr|Amaranthus hypochondriacus|Amphilophis odorata|Anodendron affine|Apis mellifera|Aplysia juliana|Aquilaria sinensis|Arenaria kumaonensis|Artemisia capillaries|Artemisia capillaris|Artemisia filifolia|Artemisia iwayomogi|Asphodeline tenuior|Baccharis trimera|Berberis repens|Berchemia formosana|Beyeria|Beyeria latifolia|Bothriocline longipes|Bracteantha viscosa|Brickellia cavanillesii|Carica papaya|Cedrela salvadorensis|Cheilanthes albomarginata|Cheilanthes fragrans|Cheilanthes rufa|Chrysanthemum indicum|Chrysanthemum x morifolium|Clathria basilana|Corynebacterium ammoniagenes|Cremastra appendiculata|Croton laccifer|Daphne feddei|Daphne genkwa|Dendrilla cavernosa|Dendrobates truncatus|Diphasiastrum thyoides|Dryopteris championii|Eucryphia|Eupatorium capillifolium|Eupatorium hookerianum|Eupatorium leucolepis|Euphorbia myrsinites|Euphorbia sancta|Fadogia agrestis|Fomes robiniae|Garcinia cambogia|Ginkgo biloba|Glycine max|Glycyrrhiza glabra|Glycyrrhiza triphylla|Grindelia spathulata|Gymnothorax javanicus|Helicteres angustifolia|Herba artemisiae scopariae|Hertia cheirifolia|Heterocentrotus mammillatus|Hippeastrum papilio|Hygrophorus chrysodon|Ilyonectria destructans|Ips confusus|Iris hoogiana|Klyxum molle|Kunzea ericoides|Larrea divaricata|Larrea tridentata|Lavandula dentata var. dentata|Leonurus heterophyllus|Leonurus sibiricus|Lethedon tannaensis|Licaria chrysophylla|Limbarda crithmoides|Limnocharis flava|Medicago polymorpha|Mentha arvensis|Mentha canadensis|Metzgeria pubescens|Millettia ferruginea|Mimosa hostilis|Nauclea latifolia|Nepeta septemcrenata|Ocimum americanum L.var.pilosum (Willd.) Paton|Ocimum basilicum L.|Ocimum kilimandscharicum L.|Ocimum selloi Benth.|Ocimum x citriodorum Vis.|Ormosia hosiei|Ornithoglossum viride|Ostrya carpinifolia|Pajanelia multijuga|Pertusaria truncata|Petasites laevigatus|Phlomis herba-venti subsp. pungens|Phlomis pungens|Phlomoides rotata|Plagiomnium cuspidatum|Plectranthus fruticosus|Pleione bulbocodioides|Pleione yunnanensis|Plumbago scandens|Pocillopora eydouxi|Polypodium decumanum|Polyporus dryadeus|Polystichum spinulosum|Procambarus clarkii|Prunus pseudocerasus|Prunus serrulata var. spontanea|Ptarmica ptarmicifolia|Pteronia divaricata|Rosmarinus officinalis|Rubia tetragona|Salvia dorrii|Salvia glutinosa|Salvia lavandulaefolia|Salvia lavandulifolia|Salvia microsiphon|Salvia nicolsoniana|Salvia officinalis|Salvia palaestina|Salvia sapinae|Salvia stenophylla|Salvia yosgadensis|Schizanthus tricolor|Schizonepeta tenuifolia|Schizonepeta tenuisfolia|Sedum litoreum|Senecio madagascariensis|Senecio viscosus|Solanum aculeatissimum|Solidago spathulata|Sphaeranthus confertifolius|Stephania dielsiana|Stephanitis pyrioides|Streptomyces avermitilis (SaOMT2)|Streptomyces cavourensis|Streptomyces coeruleorubidus|Syphopappus polystachyus|Taraxacum borealisinense|Taraxacum coreanum|Taraxacum mongolicum|Taraxacum officinale|Taraxacum platycarpum|Teucrium asiaticum|Teucrium chamaedrys|Teucrium ramosissimum|Thelenota ananas|Thermopsis dolichocarpa|Vaccinium ashei|Vicia amurensis|Wyethia mollis|Xylosma longifolia|Zanthoxylum fraxineum

>  <collections>  (67) 
ANPDB|AfroMalariaDB|Australian natural products|BIOFACQUIM|BitterDB|CMAUP (cCollective molecular activities of useful plants)|ChEBI NPs|ConMedNP|FooDB|GNPS (Global Natural Products Social Molecular Networking)|KNApSaCK|Latin America dataset|Mitishamba database|NANPDB (Natural Products from Northern African Sources)|NPASS|NPCARE|NPEdia|Phyto4Health|StreptomeDB|Super Natural II|TCMDB-Taiwan (Traditional Chinese Medicine database)|TCMID (Traditional Chinese Medicine Integrated Database)|TIPdb (database of Taiwan indigenous plants)|UNPD (Universal Natural Products Database)|VietHerb|ZINC NP|p-ANAPL

>  <dois>  (67) 
10.1016/0031-9422(93)85293-z|10.1016/s0305-1978(99)00045-9|10.1021/np040058h|10.1021/np300204p|10.1021/np960336f|10.1071/ch9651871|10.1071/ch9681311|10.1186/s12934-019-1118-9

>  <synonyms>  (67) 
437-64-9|4'|5-Dihydroxy-7-methoxyflavone|Gengkwanin|Puddumetin|7-O-Methylapigenin|Apigenin 7-methyl ether|7-Methoxyapigenin|Gonkwanin|5-Hydroxy-2-(4-hydroxyphenyl)-7-methoxy-4H-chromen-4-one|4H-1-Benzopyran-4-one| 5-hydroxy-2-(4-hydroxyphenyl)-7-methoxy-|5K3I5D6B2B|CHEMBL210635|CHEBI:75718|UNII-5K3I5D6B2B|Henquanin|7'O-methyl-apigenin|Spectrum_000330|SpecPlus_000835|Spectrum2_001355|Spectrum3_001401|Spectrum4_001667|Spectrum5_000573|BSPBio_003042|KBioGR_002193|KBioSS_000810|DivK1c_006931|Genkwanin| analytical standard|SCHEMBL866123|SPBio_001569|Genkwanin| >=98% (HPLC)|KBio1_001875|KBio2_000810|KBio2_003378|KBio2_005946|KBio3_002262|DTXSID80195908|HY-N0731|BDBM50187658|CCG-38838|LMPK12111018|MFCD00017452|s9287|AKOS015896775|Flavone| 4'|5-dihydroxy-7-methoxy-|n-2|4-dimethylphenyl-n-methylformamidine|NCGC00178332-01|AC-34953|AS-60761|1ST158067|DB-051163|CS-0009744|NS00083543|4'|5-Dihydroxy-7-methoxyflavone| AldrichCPR|C10046|A913691|Q3050376|BRD-K29160894-001-02-9|genkwanin

>  <cas>  (67) 
437-64-9

$$$$

     RDKit          2D

 36 40  0  0  0  0  0  0  0  0999 V2000
   -4.5823    0.5367    0.0000 C   0  0  0  0  0  0  0  0  0  0  0  0
   -3.4066    1.4682    0.0000 C   0  0  0  0  0  0  0  0  0  0  0  0
   -3.6254    2.9521    0.0000 C   0  0  0  0  0  0  0  0  0  0  0  0
   -2.4497    3.8836    0.0000 C   0  0  0  0  0  0  0  0  0  0  0  0
   -1.0551    3.3312    0.0000 C   0  0  0  0  0  0  0  0  0  0  0  0
   -0.5088    3.2454    0.0000 C   0  0  0  0  0  0  0  0  0  0  0  0
   -0.5966    3.9601    0.0000 O   0  0  0  0  0  0  0  0  0  0  0  0
    0.0791    3.7112    0.0000 C   0  0  0  0  0  0  0  0  0  0  0  0
    0.4283    6.9179    0.0000 O   0  0  0  0  0  0  0  0  0  0  0  0
    0.1206    4.2626    0.0000 C   0  0  0  0  0  0  0  0  0  0  0  0
    1.5151    3.7102    0.0000 C   0  0  0  0  0  0  0  0  0  0  0  0
    1.7340    2.2262    0.0000 C   0  0  0  0  0  0  0  0  0  0  0  0
    3.1285    1.6738    0.0000 O   0  0  0  0  0  0  0  0  0  0  0  0
    3.3474    0.1898    0.0000 C   0  0  0  0  0  0  0  0  0  0  0  0
    2.1716   -0.7417    0.0000 O   0  0  0  0  0  0  0  0  0  0  0  0
    2.3905   -2.2256    0.0000 C   0  0  0  0  0  0  0  0  0  0  0  0
    1.2148   -3.1571    0.0000 C   0  0  0  0  0  0  0  0  0  0  0  0
    1.4336   -4.6411    0.0000 O   0  0  0  0  0  0  0  0  0  0  0  0
    3.7850   -2.7781    0.0000 C   0  0  0  0  0  0  0  0  0  0  0  0
    4.0039   -4.2620    0.0000 O   0  0  0  0  0  0  0  0  0  0  0  0
    4.9608   -1.8466    0.0000 C   0  0  0  0  0  0  0  0  0  0  0  0
    6.3553   -2.3990    0.0000 O   0  0  0  0  0  0  0  0  0  0  0  0
    4.7419   -0.3626    0.0000 C   0  0  0  0  0  0  0  0  0  0  0  0
    5.9176    0.5689    0.0000 O   0  0  0  0  0  0  0  0  0  0  0  0
    0.5582    1.2947    0.0000 C   0  0  0  0  0  0  0  0  0  0  0  0
   -0.8363    1.8472    0.0000 C   0  0  0  0  0  0  0  0  0  0  0  0
   -2.0120    0.9157    0.0000 C   0  0  0  0  0  0  0  0  0  0  0  0
   -0.8905   -0.0804    0.0000 C   0  0  0  0  0  0  0  0  0  0  0  0
   -2.7983   -0.3617    0.0000 C   0  0  0  0  0  0  0  0  0  0  0  0
   -2.0851   -1.6813    0.0000 C   0  0  0  0  0  0  0  0  0  0  0  0
   -2.8713   -2.9588    0.0000 C   0  0  0  0  0  0  0  0  0  0  0  0
   -2.3000   -4.3457    0.0000 C   0  0  0  0  0  0  0  0  0  0  0  0
   -3.4425   -5.3177    0.0000 C   0  0  0  0  0  0  0  0  0  0  0  0
   -4.7199   -4.5314    0.0000 O   0  0  0  0  0  0  0  0  0  0  0  0
   -4.3669   -3.0736    0.0000 C   0  0  0  0  0  0  0  0  0  0  0  0
   -5.3389   -1.9311    0.0000 O   0  0  0  0  0  0  0  0  0  0  0  0
  2  1  1  6
  2  3  1  0
  3  4  1  0
  5  4  1  6
  5  6  1  0
  6  7  1  0
  7  8  1  0
  8  9  2  0
  8 10  1  0
 10 11  2  0
 11 12  1  0
 12 13  1  1
 14 13  1  1
 14 15  1  0
 15 16  1  0
 16 17  1  1
 17 18  1  0
 16 19  1  0
 19 20  1  6
 19 21  1  0
 21 22  1  1
 21 23  1  0
 23 24  1  6
 12 25  1  0
 25 26  1  0
 26 27  1  0
 27 28  1  6
 27 29  1  0
 29 30  1  0
 30 31  1  0
 31 32  2  0
 32 33  1  0
 33 34  1  0
 34 35  1  0
 35 36  2  0
 27  2  1  0
 35 31  1  0
 10  5  1  0
 23 14  1  0
 26  5  1  0
M  END
>  <identifier>  (68) 
CNP0153634.1

>  <canonical_smiles>  (68) 
C[C@@H]1CC[C@@]23COC(=O)C2=C[C@@H](O[C@@H]2O[C@H](CO)[C@@H](O)[C@H](O)[C@H]2O)CC3[C@@]1(C)CCC1=CCOC1=O

>  <standard_inchi>  (68) 
InChI=1S/C26H36O10/c1-13-3-7-26-12-34-23(32)16(26)9-15(35-24-21(30)20(29)19(28)17(11-27)36-24)10-18(26)25(13,2)6-4-14-5-8-33-22(14)31/h5,9,13,15,17-21,24,27-30H,3-4,6-8,10-12H2,1-2H3/t13-,15-,17-,18?,19-,20+,21-,24-,25+,26-/m1/s1

>  <standard_inchi_key>  (68) 
ZVLAQNYZLIHKAE-JLXBEBSSSA-N

>  <name>  (68) 
nan

>  <iupac_name>  (68) 
(5~{S},7~{S},8~{R},10~{a}~{S})-7,8-dimethyl-7-[2-(5-oxo-2~{H}-furan-4-yl)ethyl]-5-[(2~{R},3~{R},4~{S},5~{S},6~{R})-3,4,5-trihydroxy-6-(hydroxymethyl)tetrahydropyran-2-yl]oxy-5,6,6~{a},8,9,10-hexahydro-1~{H}-benzo[d]isobenzofuran-3-one

>  <annotation_level>  (68) 
5

>  <total_atom_count>  (68) 
72

>  <heavy_atom_count>  (68) 
36

>  <molecular_weight>  (68) 
508.56

>  <exact_molecular_weight>  (68) 
508.23085

>  <molecular_formula>  (68) 
C26H36O10

>  <alogp>  (68) 
0.36

>  <topological_polar_surface_area>  (68) 
151.98

>  <rotatable_bond_count>  (68) 
6

>  <hydrogen_bond_acceptors>  (68) 
10

>  <hydrogen_bond_donors>  (68) 
4

>  <hydrogen_bond_acceptors_lipinski>  (68) 
10

>  <hydrogen_bond_donors_lipinski>  (68) 
4

>  <lipinski_rule_of_five_violations>  (68) 
1

>  <aromatic_rings_count>  (68) 
0

>  <qed_drug_likeliness>  (68) 
0.37

>  <formal_charge>  (68) 
0

>  <fractioncsp3>  (68) 
0.77

>  <number_of_minimal_rings>  (68) 
5

>  <van_der_walls_volume>  (68) 
448.31

>  <contains_sugar>  (68) 
True

>  <contains_ring_sugars>  (68) 
True

>  <contains_linear_sugars>  (68) 
False

>  <murcko_framework>  (68) 
O1CC=C(C1)CCC2CCCC34C(=CC(OC5OCCCC5)CC23)COC4

>  <np_likeness>  (68) 
3.43

>  <chemical_class>  (68) 
Lactones

>  <chemical_sub_class>  (68) 
Gamma butyrolactones

>  <chemical_super_class>  (68) 
Organoheterocyclic compounds

>  <direct_parent_classification>  (68) 
Gamma butyrolactones

>  <np_classifier_pathway>  (68) 
Terpenoids

>  <np_classifier_superclass>  (68) 
Diterpenoids

>  <np_classifier_class>  (68) 
Colensane and Clerodane diterpenoids

>  <np_classifier_is_glycoside>  (68) 
True

>  <organisms>  (68) 
Salvia circinata

>  <collections>  (68) 
BIOFACQUIM|Latin America dataset

>  <dois>  (68) 
10.1021/acs.jnatprod.7b00155

>  <synonyms>  (68) 
(2S 5S 8R 9R 10R)-2-(O-b-D-glucopyranosyl)neocleroda-3 13-diene-14 15;18 19-diolide

>  <cas>  (68) 
nan

$$$$

     RDKit          2D

 23 25  0  0  0  0  0  0  0  0999 V2000
   -4.0362    3.4919    0.0000 C   0  0  0  0  0  0  0  0  0  0  0  0
   -4.8011    2.2016    0.0000 O   0  0  0  0  0  0  0  0  0  0  0  0
   -4.0661    0.8940    0.0000 C   0  0  0  0  0  0  0  0  0  0  0  0
   -2.5662    0.8767    0.0000 C   0  0  0  0  0  0  0  0  0  0  0  0
   -1.8312   -0.4308    0.0000 C   0  0  0  0  0  0  0  0  0  0  0  0
   -0.3313   -0.4481    0.0000 C   0  0  0  0  0  0  0  0  0  0  0  0
    0.4038   -1.7556    0.0000 C   0  0  0  0  0  0  0  0  0  0  0  0
   -0.3611   -3.0460    0.0000 O   0  0  0  0  0  0  0  0  0  0  0  0
    1.9037   -1.7729    0.0000 C   0  0  0  0  0  0  0  0  0  0  0  0
    2.6387   -3.0804    0.0000 O   0  0  0  0  0  0  0  0  0  0  0  0
    2.6685   -0.4825    0.0000 C   0  0  0  0  0  0  0  0  0  0  0  0
    4.1684   -0.4998    0.0000 C   0  0  0  0  0  0  0  0  0  0  0  0
    4.9035   -1.8073    0.0000 O   0  0  0  0  0  0  0  0  0  0  0  0
    4.9333    0.7906    0.0000 C   0  0  0  0  0  0  0  0  0  0  0  0
    4.1983    2.0981    0.0000 C   0  0  0  0  0  0  0  0  0  0  0  0
    4.9632    3.3885    0.0000 O   0  0  0  0  0  0  0  0  0  0  0  0
    2.6984    2.1154    0.0000 C   0  0  0  0  0  0  0  0  0  0  0  0
    1.9335    0.8250    0.0000 C   0  0  0  0  0  0  0  0  0  0  0  0
    0.4336    0.8423    0.0000 O   0  0  0  0  0  0  0  0  0  0  0  0
   -2.5960   -1.7212    0.0000 C   0  0  0  0  0  0  0  0  0  0  0  0
   -4.0959   -1.7039    0.0000 C   0  0  0  0  0  0  0  0  0  0  0  0
   -4.8310   -0.3963    0.0000 C   0  0  0  0  0  0  0  0  0  0  0  0
   -6.3309   -0.3791    0.0000 O   0  0  0  0  0  0  0  0  0  0  0  0
  1  2  1  0
  2  3  1  0
  3  4  2  0
  4  5  1  0
  5  6  1  0
  6  7  2  0
  7  8  1  0
  7  9  1  0
  9 10  2  0
  9 11  1  0
 11 12  2  0
 12 13  1  0
 12 14  1  0
 14 15  2  0
 15 16  1  0
 15 17  1  0
 17 18  2  0
 18 19  1  0
  5 20  2  0
 20 21  1  0
 21 22  2  0
 22 23  1  0
 22  3  1  0
 19  6  1  0
 18 11  1  0
M  END
>  <identifier>  (69) 
CNP0304008.0

>  <canonical_smiles>  (69) 
COC1=CC(C2=C(O)C(=O)C3=C(O)C=C(O)C=C3O2)=CC=C1O

>  <standard_inchi>  (69) 
InChI=1S/C16H12O7/c1-22-11-4-7(2-3-9(11)18)16-15(21)14(20)13-10(19)5-8(17)6-12(13)23-16/h2-6,17-19,21H,1H3

>  <standard_inchi_key>  (69) 
IZQSVPBOUDKVDZ-UHFFFAOYSA-N

>  <name>  (69) 
Isorhamnetin

>  <iupac_name>  (69) 
3,5,7-trihydroxy-2-(4-hydroxy-3-methoxy-phenyl)chromen-4-one

>  <annotation_level>  (69) 
5

>  <total_atom_count>  (69) 
35

>  <heavy_atom_count>  (69) 
23

>  <molecular_weight>  (69) 
316.27

>  <exact_molecular_weight>  (69) 
316.0583

>  <molecular_formula>  (69) 
C16H12O7

>  <alogp>  (69) 
2.29

>  <topological_polar_surface_area>  (69) 
120.36

>  <rotatable_bond_count>  (69) 
2

>  <hydrogen_bond_acceptors>  (69) 
7

>  <hydrogen_bond_donors>  (69) 
4

>  <hydrogen_bond_acceptors_lipinski>  (69) 
7

>  <hydrogen_bond_donors_lipinski>  (69) 
4

>  <lipinski_rule_of_five_violations>  (69) 
0

>  <aromatic_rings_count>  (69) 
3

>  <qed_drug_likeliness>  (69) 
0.57

>  <formal_charge>  (69) 
0

>  <fractioncsp3>  (69) 
0.06

>  <number_of_minimal_rings>  (69) 
3

>  <van_der_walls_volume>  (69) 
255.51

>  <contains_sugar>  (69) 
False

>  <contains_ring_sugars>  (69) 
False

>  <contains_linear_sugars>  (69) 
False

>  <murcko_framework>  (69) 
O1c2ccccc2CC=C1c3ccccc3

>  <np_likeness>  (69) 
1.57

>  <chemical_class>  (69) 
Flavonoids

>  <chemical_sub_class>  (69) 
Flavones

>  <chemical_super_class>  (69) 
Phenylpropanoids and polyketides

>  <direct_parent_classification>  (69) 
Flavonols

>  <np_classifier_pathway>  (69) 
Shikimates and Phenylpropanoids

>  <np_classifier_superclass>  (69) 
Flavonoids

>  <np_classifier_class>  (69) 
Flavonols

>  <np_classifier_is_glycoside>  (69) 
False

>  <organisms>  (69) 
Aaptos ciliata|Abies excelsa|Abies pinsapo var. marocana|Acacia aroma|Acacia caven|Acacia dealbata|Acacia latifolia|Acacia mearnsii|Acacia praecox|Achillea spinulifolia|Achlya heterosexualis|Adiantum malesianum|Aeonium decorum|Aframomum amaniense|Aglaia formosana|Albizia Julibrissin|Alectoria divergens|Alectra parasitica|Allium cepa|Allium erubescens|Allium sativum|Allium schoenoprasum|Allium waldsteinii|Alnus incana|Alpinia officinarum|Alternaria macrospora|Amaranthus hypochondriacus|Ambrosia ambrosioides|Ambrosia hispida|Ampelocera edentula|Amphilophis odorata|Anethum graveolens|Angelica acutiloba|Annona muricata|Annona senegalensis|Anthemis altissima|Anthyllis vulneraria|Aphis graminum|Aphis pini|Arctotis revoluta|Argemone mexicana|Aristolochia zollingeriana|Arnica mollis|Arnica spp.|Aronia melanocarpa|Artemisia annua|Artemisia annua L.|Artemisia anomala|Artemisia capillaries|Artemisia capillaris|Artemisia dracunculus|Artemisia iwayomogi|Artemisia rehan|Aspergillus desertorum|Aster batangensis|Aster oharai|Astragalus dasyanthus|Astragalus flexus|Astragalus floccosifolius|Astragalus kabadianus|Astragalus melilotoides|Astragalus membranaceus|Astragalus mongholicus|Astragalus onobrychis|Astragalus propinquus|Aulosira fertilissima|Avrainvillea longicaulis|Baccharis viminea|Baeckea crenulata|Balanophora involucrata|Bartramia pomiformis|Bauhinia glauca|Beilschmiedia anacardioides|Berberis repens|Betula nigra|Binapsis arvense|Bistorta manshuriensis|Bistorta officinalis|Bletilla formosana|Boehmeria pannosa|Botrytis cinerea|Brassica carinata|Brassica oleracea|Brassica rapa|Brickellia cavanillesii|Bryonia alba|Bryum argenteum|Bupleurum rotundifolium L.|Bupleurum spinosum|Byssochlamys fulva|Cacalia pilgeriana|Cacumen tamaricis|Caesalpinia gilliesii|Calendula officinalis|Callicarpa japonica|Campanula glomerata L.|Capparis tweediana|Capsicum annuum|Caragana frutex|Carpha glomerata|Cedrus atlantica Manetii cv.glauca|Cedrus libani|Cephalaria grossheimii|Cerinthe minor|Chrysanthemum indicum|Chrysanthemum x morifolium|Chrysosporum ovalisporum|Chrysothamnus nauseosus|Cicer arietinum|Cirsium carolinianum|Cirsium oligophyllum|Cistus incanus|Citrullus lanatus|Cladrastis platycarpa|Clione antarctica|Coccus ilicis|Colocasia esculenta|Coprosma areolata|Cortinarius orellanus|Corydalis ochotensis|Craspidospermum verticillatum|Croton gratissimus|Croton laccifer|Cucumis sativus|Cuscuta australis|Cuscuta chinensis|Cyanostegia angustifolia|Cylindrospermum muscicola|Dactylorhiza viridis|Dalbergia hupeana|Daucus carota|Dendrilla cavernosa|Dendroctonus ponderosae|Descurainia sophia|Desmodium styracifolium|Dictyopteris acrostichoides|Dioscorea japonica|Diospyros japonica|Dipentodon sinicus|Diphasiastrum thyoides|Diplodia natalensis|Diplopterygium glaucum|Dodonaea viscosa|Dolichopentas longiflora|Dorycnium pentaphyllum|Earina autumnalis|Ehretia dicksonii|Elaeagnus angustifolia|Elephantopus hirtiflorus|Entada phaseoloides|Ephydatia syriaca|Eremanthus seidelii|Ericameria linearifolia|Eriodictyon sessilifolium|Eriophyllum staechadifolium|Eruca vesicaria|Escallonia pulverulenta|Eucalyptus resinifera|Eucalyptus spp.|Eupatorium kiirunense|Euphorbia amygdaloides|Euphorbia hirta|Euphorbia myrsinites|Euphrasia genargentea|Euphydryas cynthia|Eurycoma harmandiana|Exallage auricularia|Ficus nitida|Foeniculum vulgare|Fomes robiniae|Forsythia suspensa|Forsythia viridissima|Fritillaria raddeana|Fructus caryophylli|Fructus kochiae|Gambierdiscus toxicus|Genista aetnensis|Genista cinerea|Ginkgo biloba|Gmelina asiatica|Goniothalamus tamirensis|Grindelia nana|Guatteria ouregou|Gutierrezia wrightii|Gymnothorax javanicus|Gynostemma yixingense|Gynoxys nitida|Halobacillus litoralis|Halobacterium salinarum|Hamamelistes betulae|Haplopappus bailahuen|Haplopappus foliosus|Helichrysum cephaloideum|Helicoverpa zea|Helicteres angustifolia|Heliotropium amplexicaule|Hemionitis japonica|Herba artemisiae scopariae|Herba meconpsis integrifoliae|Herba patriniae|Herba sedi sarmentosi|Hesperis matronalis|Hippeastrum papilio|Hippophae rhamnoides|Holboellia fargesi|Homeria glauca|Homo sapiens|Hygrophorus chrysodon|Hypericum ascyron|Hypericum balearicum|Hypericum oblongifolium|Hypericum perforatum|Iberis amara|Inula britannica|Inula japonica|Ips confusus|Isaria felina|Isodon japonica var. glaucocalyx|Isodon rubescens|Ixeris debilis|Ixeris stolonifera|Jackiella javanica|Jatropha macrorhiza|Justicia paniculata|Khaya ivorensis|Khaya senegalensis|Kitaibela vitifolia|Lactuca sativa|Larix cajanderi|Lasiolaena morii|Lecanora nipponica|Lepidium apetalum|Lepidium sativum|Libocedrus plumosa|Ligularia cymbulifera|Lilium umbellatum|Limnocharis flava|Lobophytum durum|Lobophytum laevigatum|Lonicera tatarica var. morrowii|Lotus corniculatus|Lotus japonicus|Lotus maritimus|Lupinus verbasciformis|Lychnophora diamantina|Lysimachia christinae|Lysimachia fordiana|Magnolia montana|Marasmiellus troyanus|Maytenus chuchuhuasha|Meconopsis horridula|Medicago sativa|Melaleuca rhaphiophylla|Microcos paniculata|Millettia ferruginea|Mirabilis viscosa|Morus alba|Mutisia orbignyana|Myristica fragrans|Nama hispidum|Nelumbo nucifera|Nematolepis phebalioides|Neobellieria bullata|Neophaeosphaeria quadriseptata|Nephroma parile|Nothofagus obliqua|Oenanthe javanica|Onobrychis biebersteinii|Oreopteris quelpaertensis|Orthosiphon spicatus|Oxytropis campestris|Oxytropis falcata|Oxytropis oxyphylla|Ozothamnus spp.|Paeonia rockii|Pangium edule|Passiflora palmeri|Pastinaca sativa|Patersonia umbrosa|Patrinia villosa|Penicillium paxilli|Penstemon mucronatus|Pericome caudata|Periploca calophylla|Petasites hybridus|Petroselinum crispum|Phaseolus vulgaris|Phlomoides rotata|Phora velutina|Phyllanthus emblica|Picramnia latifolia|Pieris napi|Piper lanceifolium|Podocarpus fasciculus|Polygonum aviculare|Polygonum punctatum|Polyporus dryadeus|Polyzonium rosalbum|Portulaca oleracea|Prosopis argentina|Prosopis hassleri|Prosopis humilis|Prosopis reptans|Prosopis ruizlealii|Prosopis sericantha|Prosopis torquata|Prumnopitys ferruginoides|Prunus dulcis|Pseudaegle trifoliata|Psidium guaijava|Ptarmica ptarmicifolia|Pterolobium hexapetalum|Pulicaria dysenterica|Pulicaria gnaphaloides|Pyrus communis|Ranunculus asiaticus|Reineckea carnea|Remirea maritima|Rhamnus pallasii|Rhaponticum carthamoides|Rhizobium leguminosarum|Rhus vulgaris|Rosa laevigata|Rubus arcticus|Ruellia rosea|Ruscus hypoglossum L.|Saccharopolyspora hirsuta|Salvia farinacea|Sarcophyton elegans|Schizophyllum lobatum|Sedum lineare|Sedum litoreum|Sedum obtuso-lineare|Sedum sarmentosum|Senecio adenophyllus|Senecio renardii|Senecio viscosus|Senna alexandrina|Senna siamea|Sextonia rubra|Sideritis kuegleriana|Siegesbeckia jorullensis|Siegesbeckia pubescens|Sigesbeckia glabrescens|Sinapis alba|Solanum lanceolatum|Solanum lycopersicum|Solanum melongena|Solidago flexicaulis|Sophora japonica|Sophora moorcroftiana|Sophora tometosa|Sphagnum rubellum|Stemona saxorum|Stephania epigaea|Sterculia foetida|Stizolobium deeringianum|Streptomyces matensis|Streptomyces paulus|Strychnos pseudoquina|Styphnolobium japonicum|Synoicum pulmonaria|Tamarix chinensis|Tamarix hispida|Targionia hypophylla|Taxus brevifolia|Taxus cuspidata|Tephrosia elata|Teucrium asiaticum|Thermopsis dolichocarpa|Thorecta marginalis|Triaenophora rupestris|Trichophyton mentagrophytes|Trididemnum cyanophorum|Trifolium pratense|Trifolium subterraneum|Trigonella foenum-graecum|Trikentrion flabelliforme|Trollius chinensis|Typha angustata|Typha angustifolia|Typha latifolia|Typha orientalis|Umbelliferae|Umbilicaria esculenta|Vellozia conicostigma|Verbena officinalis|Viburnum erubescens|Vicia amurensis|Vigna mungo|Viguiera linearis|Virola multinervia|Virola surinamensis|Viscum album|Viscum cruciatum|Wikstroemia viridiflora|Wyethia mollis|Xanthorhiza simplicissima|Zaluzania triloba|Zanthoxylum fraxineum|Zea mays

>  <collections>  (69) 
ANPDB|Australian natural products|BIOFACQUIM|BitterDB|CMAUP (cCollective molecular activities of useful plants)|ChEBI NPs|ChemSpider NPs|ETM (Ethiopian Traditional Medicine) DB|FooDB|GNPS (Global Natural Products Social Molecular Networking)|HIT (Herbal Ingredients Targets)|InflamNat|KNApSaCK|Latin America dataset|NANPDB (Natural Products from Northern African Sources)|NPASS|NPCARE|NPEdia|NuBBEDB|Phenol-explorer|Phyto4Health|ReSpect|Super Natural II|TCMDB-Taiwan (Traditional Chinese Medicine database)|TCMID (Traditional Chinese Medicine Integrated Database)|TIPdb (database of Taiwan indigenous plants)|UNPD (Universal Natural Products Database)|VietHerb|Watermelon

>  <dois>  (69) 
10.1016/j.bmcl.2015.04.045|10.1016/j.bmcl.2015.05.089|10.1016/j.fct.2013.05.049|10.1016/j.foodchem.2020.128444|10.1016/s0031-9422(00)97881-6|10.1021/acs.jnatprod.8b01054|10.1021/np020472m|10.1021/np300204p|10.1021/np50036a007|10.1038/sj.ejcn.1602744|10.1055/s-0031-1296905|10.1093/pcp/pcn183

>  <synonyms>  (69) 
480-19-3|3-Methylquercetin|Isorhamnetol|Quercetin 3'-methyl ether|3'-Methoxyquercetin|isorhamnetine|3'-Methoxy-3|4'|5|7-tetrahydroxyflavone|3|5|7-Trihydroxy-2-(4-hydroxy-3-methoxyphenyl)-4H-chromen-4-one|C.I. 75680|3|4'|5|7-Tetrahydroxy-3'-methoxyflavone|CCRIS 3791|EINECS 207-545-5|UNII-07X3IB4R4Z|Flavone| 3'-methoxy-3|4'|5|7-tetrahydroxy-|BRN 0044723|07X3IB4R4Z|CHEBI:6052|FLAVONE| 3|4'|5|7-TETRAHYDROXY-3'-METHOXY-|4H-1-Benzopyran-4-one| 3|5|7-trihydroxy-2-(4-hydroxy-3-methoxyphenyl)-|3|5|7-Trihydroxy-2-(4-hydroxy-3-methoxyphenyl)-4-benzopyrone|4H-1-Benzopyran-4-one| 2-(3-methoxy-4-hydroxyphenyl)-3|5|7-trihydroxy-|CHEMBL379064|METHYLQUERCETIN| 3'-O-|DTXSID10197379|MFCD00017310|ISORHAMNETIN (USP-RS)|3'-O-Methyl Quercetin|SR-05000002256|Isorhanetin|(S)|IRH|-4H-chromen-4-one|ISORHAMNETIN INCI|Oprea1_145406|SCHEMBL19235|MEGxp0_001863|ACon1_000275|BDBM23409|Isorhamnetin| analytical standard|3-Methylquercetin (Isorhamnetin)|DTXCID70119870|BCP11534|EX-A6804|HY-N0776|Isorhamnetin| >=95.0% (HPLC)|LMPK12110002|s9111|AKOS015905141|CCG-208422|CCG-208453|CS-5945|NCGC00163572-01|NCGC00180719-01|AC-20263|AS-71136|DB-051498|ISORHAMNETIN (CONSTITUENT OF GINKGO)|I1068|NS00003531|3|5|7-trihydroxy-2-(4-hydroxy-3-methoxyphenyl)|Q416138|Q-100518|BRD-K83977206-001-01-4|Isorhamnetin| primary pharmaceutical reference standard|Isorhamnetin| United States Pharmacopeia (USP) Reference Standard|Isorhamnetin|Umbelliferae

>  <cas>  (69) 
480-19-3

$$$$

     RDKit          2D

 30 31  0  0  0  0  0  0  0  0999 V2000
   -0.2750   -3.4763    0.0000 C   0  0  0  0  0  0  0  0  0  0  0  0
    1.1125   -2.9063    0.0000 C   0  0  0  0  0  0  0  0  0  0  0  0
    2.3892   -3.6937    0.0000 C   0  0  0  0  0  0  0  0  0  0  0  0
    2.5026   -5.1894    0.0000 O   0  0  0  0  0  0  0  0  0  0  0  0
    3.5326   -2.7228    0.0000 O   0  0  0  0  0  0  0  0  0  0  0  0
    2.9626   -1.3353    0.0000 C   0  0  0  0  0  0  0  0  0  0  0  0
    4.1060   -0.3644    0.0000 C   0  0  0  0  0  0  0  0  0  0  0  0
    4.4603    1.0931    0.0000 C   0  0  0  0  0  0  0  0  0  0  0  0
    5.9560    1.2065    0.0000 C   0  0  0  0  0  0  0  0  0  0  0  0
    3.8903    2.4806    0.0000 C   0  0  0  0  0  0  0  0  0  0  0  0
    2.6136    3.2680    0.0000 C   0  0  0  0  0  0  0  0  0  0  0  0
    1.1179    3.1546    0.0000 C   0  0  0  0  0  0  0  0  0  0  0  0
    0.5479    4.5421    0.0000 O   0  0  0  0  0  0  0  0  0  0  0  0
   -0.0255    2.1837    0.0000 C   0  0  0  0  0  0  0  0  0  0  0  0
   -1.5212    2.0703    0.0000 C   0  0  0  0  0  0  0  0  0  0  0  0
   -0.5956    3.5712    0.0000 O   0  0  0  0  0  0  0  0  0  0  0  0
   -0.3799    0.7262    0.0000 C   0  0  0  0  0  0  0  0  0  0  0  0
   -1.8756    0.6128    0.0000 O   0  0  0  0  0  0  0  0  0  0  0  0
   -2.7216    1.8514    0.0000 C   0  0  0  0  0  0  0  0  0  0  0  0
   -4.2173    1.7380    0.0000 C   0  0  0  0  0  0  0  0  0  0  0  0
   -2.0720    3.2034    0.0000 O   0  0  0  0  0  0  0  0  0  0  0  0
    0.1902   -0.6613    0.0000 C   0  0  0  0  0  0  0  0  0  0  0  0
   -0.9533   -1.6322    0.0000 O   0  0  0  0  0  0  0  0  0  0  0  0
   -2.3658   -1.1274    0.0000 C   0  0  0  0  0  0  0  0  0  0  0  0
   -2.9840    0.2393    0.0000 O   0  0  0  0  0  0  0  0  0  0  0  0
   -3.5092   -2.0983    0.0000 C   0  0  0  0  0  0  0  0  0  0  0  0
   -3.2401   -3.5739    0.0000 C   0  0  0  0  0  0  0  0  0  0  0  0
   -4.9217   -1.5935    0.0000 C   0  0  0  0  0  0  0  0  0  0  0  0
   -5.1908   -0.1178    0.0000 C   0  0  0  0  0  0  0  0  0  0  0  0
    1.4669   -1.4487    0.0000 C   0  0  0  0  0  0  0  0  0  0  0  0
  1  2  2  0
  2  3  1  0
  3  4  2  0
  3  5  1  0
  5  6  1  0
  6  7  1  1
  7  8  1  0
  8  9  1  6
  8 10  1  0
 10 11  2  0
 11 12  1  0
 12 13  2  0
 12 14  1  0
 14 15  1  6
 14 16  1  0
 14 17  1  0
 17 18  1  1
 18 19  1  0
 19 20  1  0
 19 21  2  0
 17 22  1  0
 22 23  1  6
 23 24  1  0
 24 25  2  0
 24 26  1  0
 26 27  1  0
 26 28  2  0
 28 29  1  0
 22 30  1  0
 30  2  1  6
 30  6  1  0
M  END
>  <identifier>  (70) 
CNP0348001.1

>  <canonical_smiles>  (70) 
C=C1C(=O)O[C@@H]2C[C@@H](C)/C=C\C(=O)[C@](C)(O)[C@H](OC(C)=O)[C@@H](OC(=O)/C(C)=C\C)[C@@H]12

>  <standard_inchi>  (70) 
InChI=1S/C22H28O8/c1-7-12(3)20(25)30-18-17-13(4)21(26)29-15(17)10-11(2)8-9-16(24)22(6,27)19(18)28-14(5)23/h7-9,11,15,17-19,27H,4,10H2,1-3,5-6H3/b9-8-,12-7-/t11-,15+,17-,18-,19+,22-/m0/s1

>  <standard_inchi_key>  (70) 
DXPFQBFCOCKNEU-MBWLHKRJSA-N

>  <name>  (70) 
nan

>  <iupac_name>  (70) 
[(3~{a}~{S},4~{S},5~{R},6~{R},8~{Z},10~{R},11~{a}~{R})-5-acetoxy-6-hydroxy-6,10-dimethyl-3-methylene-2,7-dioxo-3~{a},4,5,10,11,11~{a}-hexahydrocyclodeca[b]furan-4-yl] (~{Z})-2-methylbut-2-enoate

>  <annotation_level>  (70) 
5

>  <total_atom_count>  (70) 
58

>  <heavy_atom_count>  (70) 
30

>  <molecular_weight>  (70) 
420.46

>  <exact_molecular_weight>  (70) 
420.17842

>  <molecular_formula>  (70) 
C22H28O8

>  <alogp>  (70) 
1.81

>  <topological_polar_surface_area>  (70) 
116.20

>  <rotatable_bond_count>  (70) 
3

>  <hydrogen_bond_acceptors>  (70) 
8

>  <hydrogen_bond_donors>  (70) 
1

>  <hydrogen_bond_acceptors_lipinski>  (70) 
8

>  <hydrogen_bond_donors_lipinski>  (70) 
1

>  <lipinski_rule_of_five_violations>  (70) 
0

>  <aromatic_rings_count>  (70) 
0

>  <qed_drug_likeliness>  (70) 
0.42

>  <formal_charge>  (70) 
0

>  <fractioncsp3>  (70) 
0.55

>  <number_of_minimal_rings>  (70) 
2

>  <van_der_walls_volume>  (70) 
381.72

>  <contains_sugar>  (70) 
False

>  <contains_ring_sugars>  (70) 
False

>  <contains_linear_sugars>  (70) 
False

>  <murcko_framework>  (70) 
O1CCC2CCCCC=CCCC12

>  <np_likeness>  (70) 
3.38

>  <chemical_class>  (70) 
Prenol lipids

>  <chemical_sub_class>  (70) 
Terpene lactones

>  <chemical_super_class>  (70) 
Lipids and lipid-like molecules

>  <direct_parent_classification>  (70) 
Germacranolides and derivatives

>  <np_classifier_pathway>  (70) 
Terpenoids

>  <np_classifier_superclass>  (70) 
Sesquiterpenoids

>  <np_classifier_class>  (70) 
Germacrane sesquiterpenoids

>  <np_classifier_is_glycoside>  (70) 
False

>  <organisms>  (70) 
Brickellia cavanillesii

>  <collections>  (70) 
BIOFACQUIM|Latin America dataset|NPEdia|Super Natural II

>  <dois>  (70) 
10.1021/np300204p

>  <synonyms>  (70) 
Calein B|Calein A

>  <cas>  (70) 
nan

$$$$

     RDKit          2D

 21 23  0  0  0  0  0  0  0  0999 V2000
    1.8066    3.0899    0.0000 O   0  0  0  0  0  0  0  0  0  0  0  0
    1.2601    1.6930    0.0000 C   0  0  0  0  0  0  0  0  0  0  0  0
   -0.2229    1.4678    0.0000 C   0  0  0  0  0  0  0  0  0  0  0  0
   -1.1594    2.6395    0.0000 O   0  0  0  0  0  0  0  0  0  0  0  0
   -0.7694    0.0709    0.0000 C   0  0  0  0  0  0  0  0  0  0  0  0
   -2.2524   -0.1543    0.0000 C   0  0  0  0  0  0  0  0  0  0  0  0
   -3.1889    1.0174    0.0000 C   0  0  0  0  0  0  0  0  0  0  0  0
   -4.6719    0.7922    0.0000 C   0  0  0  0  0  0  0  0  0  0  0  0
   -5.2184   -0.6047    0.0000 C   0  0  0  0  0  0  0  0  0  0  0  0
   -6.7014   -0.8299    0.0000 O   0  0  0  0  0  0  0  0  0  0  0  0
   -4.2818   -1.7764    0.0000 C   0  0  0  0  0  0  0  0  0  0  0  0
   -2.7988   -1.5512    0.0000 C   0  0  0  0  0  0  0  0  0  0  0  0
    0.1672   -1.1008    0.0000 O   0  0  0  0  0  0  0  0  0  0  0  0
    1.6502   -0.8756    0.0000 C   0  0  0  0  0  0  0  0  0  0  0  0
    2.5867   -2.0474    0.0000 C   0  0  0  0  0  0  0  0  0  0  0  0
    4.0697   -1.8221    0.0000 C   0  0  0  0  0  0  0  0  0  0  0  0
    5.0062   -2.9939    0.0000 O   0  0  0  0  0  0  0  0  0  0  0  0
    4.6162   -0.4252    0.0000 C   0  0  0  0  0  0  0  0  0  0  0  0
    3.6796    0.7465    0.0000 C   0  0  0  0  0  0  0  0  0  0  0  0
    4.2261    2.1434    0.0000 O   0  0  0  0  0  0  0  0  0  0  0  0
    2.1966    0.5213    0.0000 C   0  0  0  0  0  0  0  0  0  0  0  0
  1  2  2  0
  2  3  1  0
  3  4  1  0
  3  5  2  0
  5  6  1  0
  6  7  2  0
  7  8  1  0
  8  9  2  0
  9 10  1  0
  9 11  1  0
 11 12  2  0
  5 13  1  0
 13 14  1  0
 14 15  2  0
 15 16  1  0
 16 17  1  0
 16 18  2  0
 18 19  1  0
 19 20  1  0
 19 21  2  0
 21  2  1  0
 12  6  1  0
 21 14  1  0
M  END
>  <identifier>  (71) 
CNP0292269.0

>  <canonical_smiles>  (71) 
O=C1C(O)=C(C2=CC=C(O)C=C2)OC2=CC(O)=CC(O)=C12

>  <standard_inchi>  (71) 
InChI=1S/C15H10O6/c16-8-3-1-7(2-4-8)15-14(20)13(19)12-10(18)5-9(17)6-11(12)21-15/h1-6,16-18,20H

>  <standard_inchi_key>  (71) 
IYRMWMYZSQPJKC-UHFFFAOYSA-N

>  <name>  (71) 
kaempferol

>  <iupac_name>  (71) 
3,5,7-trihydroxy-2-(4-hydroxyphenyl)chromen-4-one

>  <annotation_level>  (71) 
5

>  <total_atom_count>  (71) 
31

>  <heavy_atom_count>  (71) 
21

>  <molecular_weight>  (71) 
286.24

>  <exact_molecular_weight>  (71) 
286.04774

>  <molecular_formula>  (71) 
C15H10O6

>  <alogp>  (71) 
2.28

>  <topological_polar_surface_area>  (71) 
111.13

>  <rotatable_bond_count>  (71) 
1

>  <hydrogen_bond_acceptors>  (71) 
6

>  <hydrogen_bond_donors>  (71) 
4

>  <hydrogen_bond_acceptors_lipinski>  (71) 
6

>  <hydrogen_bond_donors_lipinski>  (71) 
4

>  <lipinski_rule_of_five_violations>  (71) 
0

>  <aromatic_rings_count>  (71) 
3

>  <qed_drug_likeliness>  (71) 
0.55

>  <formal_charge>  (71) 
0

>  <fractioncsp3>  (71) 
0.00

>  <number_of_minimal_rings>  (71) 
3

>  <van_der_walls_volume>  (71) 
230.31

>  <contains_sugar>  (71) 
False

>  <contains_ring_sugars>  (71) 
False

>  <contains_linear_sugars>  (71) 
False

>  <murcko_framework>  (71) 
O1c2ccccc2CC=C1c3ccccc3

>  <np_likeness>  (71) 
1.55

>  <chemical_class>  (71) 
Flavonoids

>  <chemical_sub_class>  (71) 
Flavones

>  <chemical_super_class>  (71) 
Phenylpropanoids and polyketides

>  <direct_parent_classification>  (71) 
Flavonols

>  <np_classifier_pathway>  (71) 
Shikimates and Phenylpropanoids

>  <np_classifier_superclass>  (71) 
Flavonoids

>  <np_classifier_class>  (71) 
Flavonols

>  <np_classifier_is_glycoside>  (71) 
False

>  <organisms>  (71) 
Aaptos aaptos|Aaptos ciliata|Abies excelsa|Abies pinsapo var. marocana|Acacia pycnantha|Acacia salicina|Acanthaster planci|Acer carpinifolium|Achillea clypeolata|Achillea pseudopectinata|Achillea wilhelmsii|Achlya heterosexualis|Acnistus breviflorus|Aconitum kamtschaticum|Aconitum nevadense|Aconitum vilmorinianum|Aconitum violaceum|Actinidia chinensis|Actinidia kolomikta|Adenocarpus foliolosus|Adiantum malesianum|Adina cordifolia Roxb.|Adina racemosa|Aframomum amaniense|Afrocarpus falcatus|Afzelia bella|Agaricus hortensis|Agastache rugosa|Agelas conifera|Agelas linnaei|Agelas nakamurai|Aglaia australiensis|Agrimonia pilosa|Ajuga genevensis|Ajuga taiwanensis|Alangium longiflorum|Alangium premnifolium|Albertisia papuana|Albizia Julibrissin|Albizia inundata|Alectoria divergens|Alectoria japonica|Alectra parasitica|Alkanna cappadocica|Alkanna orientalis|Allagopappus viscosissimus|Allium ampeloprasum|Allium cepa|Allium sativum|Allium schoenoprasum|Allium tuberosum|Alnus cordata|Aloe africana|Aloe deltoideodonta|Aloe ferox|Aloe spicata|Aloe vera|Aloe vulgaris|Alphitonia macrocarpa|Alpinia allughas|Alpinia officinarum|Alseodaphne corneri|Alstonia muelleriana|Alternaria japonica|Alternaria kikuchiana|Alternaria macrospora|Amaranthus hypochondriacus|Ambrosia tenuifolia|Amelanchier vulgaris|Ampelocera edentula|Ampelopsis brevipedunculata|Amphilophis odorata|Amyris marshii|Anabaena minutissima|Anastatica hierochuntica|Anaxagorea luzonensis A.GRAY|Andropogon jwarancusa|Anethum graveolens|Angelica acutiloba|Angelica furcijuga KITAGAWA|Angelica gmelinii|Angelica tarokoensis|Anigozanthos pulcherrimus|Anigozanthos rufus|Anisodus tanguticus|Annona impressivenia|Annona muricata|Anthemis auriculata|Anthoxanthum nitens|Anthyllis onobrychoides|Antillogorgia elisabethae|Antitoxicum scanden|Apis mellifera|Apis mellifera ligustica|Apium graveolens|Aplophyllum telephioides|Aplysina laevis|Apocynaceae|Apocynum venetum|Arabidopsis thaliana|Ardisia colorata|Arisarum vulgare|Aristolochia zollingeriana|Armoracia rusticana|Arnica mollis|Aronia arbutifolia|Aronia melanocarpa|Artemisia annua|Artemisia annua L.|Artemisia cina|Artemisia dentata|Artemisia dracunculus|Artemisia lactiflora|Artemisia lucentica|Artemisia ludoviciana subsp. mexicana|Artemisia tournefortiana|Arthrobacter glacialis|Artocarpus altilis|Arum maximum|Ascarina lucida|Ascidia ahodori|Asparagus officinalis|Aspergillus falconensis|Aspergillus unguis|Aspicilia caesiocinerea|Aster ageratoides|Aster oharai|Aster tataricus|Asterogyne martiana|Astragalus asper|Astragalus complanatus|Astragalus membranaceus|Astragalus mongholicus|Astragalus oleifolius|Astragalus pycnanthus|Astragalus spinosus|Astrantia major|Atalantia racemosa|Athanasia crithmifolia|Athrotaxis selaginoides|Attalea excelsa|Atuna racemosa|Aulacocephalus temmincki|Aulacomnium androgynum|Axinyssa variabilis|Baccharis magellanica|Backhousia angustifolia|Balanophora involucrata|Balanus glandula|Baphia bancoensis|Bartramia pomiformis|Bauhinia glauca|Bauhinia purpurea|Bauhinia splendens|Befaria glutinosa|Beilschmiedia anacardioides|Beilschmiedia volckii|Benzoin praecox|Berberis floribunda|Berberis julianae|Berberis repens|Berberis valdiviana|Berkheya zeyheri|Berlinia tomentosa|Bersama yangambiensis|Beta vulgaris|Betula ermanii|Betula exilis|Bidens sulphureus|Bistorta manshuriensis|Bistorta officinalis|Bleekeria vitiensis|Bletilla formosana|Blighia welwitschii|Boehmeria pannosa|Boletus fomentarius|Bombax ceiba|Bonamia spectabilis|Boronella koniambiensis|Boronia pinnata|Botryosphaeria berengeriana|Botrytis cinerea|Brachyspira hyodysenteriae|Bragantia wallichii|Brassica carinata|Brassica carinata B line|Brassica carinata Y line|Brassica juncea|Brassica napus|Brassica oleracea|Brassica oleracea var. sabauda|Brassica rapa|Brassica rapa subsp. chinensis|Brassica rapa subsp. oleifera|Brassicaceae|Brevibacillus laterosporus|Brickellia cavanillesii|Bridelia ferruginea|Bryonia alba|Buddleja cordata|Bufotes viridis|Bugula dentata|Buphane fischeri|Burkholderia cepacia|Byrsonima coccolobifolia|Bystropogon origanifolius|Cacalia floridana|Caesalpinia tinctoria|Calceolaria petiolaris|Calea pilosa|Callerya cinerea|Calligonum leucocladum|Calonectria cylindrospora|Calvatia lilacina|Camchaya loloana|Camellia sinensis|Canarium album|Canarium strictum|Candida albicans|Canella winterana|Capnella erecta|Capparis himalayensis|Capparis spinosa|Capsicum annuum|Cardamine pinnata|Carica papaya|Carlina acanthifolia|Carlina acaulis|Carpha glomerata|Carthamus tinctorius|Carum carvi|Casearia ilicifolia|Cassia acutifolia|Cassia alata|Cassia angustifolia|Cassia fistula|Cassia tora|Castanopsis sclerophylla|Casuarina cunninghamiana Miq.|Casuarina equisetifolia|Casuarina equisetifolia L.|Casuarina junghaniana|Casuarina rigida|Catalpa ovata|Cathormion altissimum|Catunaregam spinosa|Caulerpa serrulata|Cedrus atlantica Manetii cv.glauca|Cedrus libani|Centaurea solstitialis|Centella asiatica|Cephalaria grossheimii|Ceramium rubrum|Ceratonia siliqua|Cerbera dilatata|Cercis chinensis|Cereus blanckii|Cereus dumortieri|Cerinthe minor|Chaetomium globosum|Chaetomium subaffine|Chamaecyparis formosensis|Chamomilla recutita|Chara ceratophylla|Cheilanthes grisea|Chenopodium murale|Chenopodium quinoa|Chlorociboria aeruginascens|Chromolaena arnottiana|Chrysanthemum indicum|Chrysanthemum uliginosum|Chrysanthemum x morifolium|Chrysosplenium echinus|Chrysosporum ovalisporum|Cibotium barometz|Cichorium endivia|Cichorium intybus|Cineraria geifolia|Cirsium carolinianum|Cirsium oligophyllum|Cirsium tanakae|Citrullus lanatus|Citrus aurantium|Citrus hassaku|Citrus limon|Citrus maxima|Citrus natsudaidai|Citrus paradisi|Citrus rugulosa|Citrus sinensis|Cladonia incrassata|Clathrotropis brachypetala|Clausena lansium|Clavariopsis aquatica|Cleistanthus indochinensis|Cleistopholis staudtii|Clematis angustifolia|Clethra macrophylla|Clibadium mexiae|Clusia nemorosa|Cneorum pulverulentum|Coccus ilicis|Cocos nucifera|Codonocarpus australis|Codonopsis pilosula|Coelogorgia palmosa|Colobocentrotus atratus|Colocasia esculenta|Colubrina faralaotra subsp.trichocarpa.|Conocephalum japonicum|Consolida oliveriana|Conyza japonica|Corchorus olitorius|Cordia curassavica|Cordylanthus kingii|Cordyline neocaledonica|Coreopsis grandiflora|Coreopsis nodosa|Corticium simplex|Corydalis ochotensis|Cosmos diversifolius|Cosmos pringlei|Coutarea latifolia|Craibiodendron henryi|Crambe tatarica|Crangon vulgaris|Craspidospermum verticillatum|Crataegus pinnatifida|Crataegus tanacetifolia|Crateva nurvala|Crepidiastrum sonchifolium|Crepis rubra|Crescentia cujete|Crinipellis scabella|Crinum latifolium|Crocus sativus|Crossaster papposus|Crotalaria lachnophora|Crotalus atrox|Croton cascarilloides|Croton cumingii|Croton gratissimus|Croton laccifer|Croton nitens|Cryptocarya liebertiana|Cryptocarya lividula|Cryptocarya oblata|Cryptosporium pinicola|Cucumis melo|Cucumis sativus|Cucurbita maxima|Cucurbita moschata|Cudrania cochinchinensis var. gerontogea|Cudrania tricuspidata|Cuminum cyminum|Cunninghamia lanceolata var. konishii|Curcuma caesia|Cuscuta australis|Cuscuta chinensis|Cuscuta japonica|Cuscuta lupuliformis|Cyanostegia angustifolia|Cyberlindnera jadinii|Cyclamen purpurascens|Cymodocea nodosa|Cyrtomium falcatum|Cystophora scalaris|Cystoseira amentacea|Cystoseira jabukae|Cytisus caramanicus|Dacrydium cupressinum|Dactylorhiza viridis|Dahlstedtia araripensis|Dalbergia hupeana|Dalbergia nigra|Daphnandra aromatica|Daphne feddei|Daphne genkwa|Daphne giraldii|Daphne lancifolia|Daphne oleoides|Daucus carota|Davidsonia pruriens|Debregeasia orientalis|Decachaeta thieleana|Delphinium andersoni|Delphinium cashmerianum|Delphinium formosum|Delphinium shawurense|Dendrilla cavernosa|Dendrilla membranosa|Dendrobium candidum|Dendroctonus ponderosae|Dendronephthya gigantea|Derris uliginosa|Desmodium styracifolium|Diaporthe helianthi|Dichotomaria marginata|Dicranopteris linearis|Dictyochaeta simplex|Dictyopteris acrostichoides|Dictyostelium mucoroides|Dictyota binghamiae|Didemnum solidum|Dilleniaceae|Dimorphotheca sinuata|Dinophysis fortii|Dioscorea althaeoides|Dioscorea bulbifera|Dioscorea bulbifera L.var sativa|Dioscorea japonica|Dioscorea tokoro|Dioscorea villosa|Diospyros eriantha|Diospyros japonica|Diospyros verrucosa|Diotis maritima|Dipentodon sinicus|Diphasia angolensis|Diphasiastrum thyoides|Diphylleia grayi|Diphylleia sinensis|Diplacus longiflorus|Diplopterygium glaucum|Dipsacus asper|Dipteronia dyeriana|Dipteryx odorata|Diptychocarpus strictus|Discaria serratifolia|Disynaphia halimifolia|Diuranthera major|Dodonaea polyandra|Dolichopentas longiflora|Doodia picta|Dryopteris crassirhizoma|Duguetia calycina|Dunalia solanacea|Dysidea amblia|Dysidea tupha|Echinacea pallida|Echinaster sepositus|Ectropis bicolor|Ehretia dicksonii|Ekebergia senegalensis|Elaeagnus umbellata|Elateriospermum tapos|Elmerrillia papuana|Elsholtzia cristata|Elymus repens|Embelia barbeyana|Empetrum nigrum|Entomophthora virulenta|Ephedra sinica|Ephydatia syriaca|Epimedium acuminatum|Epimedium brevicornu|Epimedium brevicornum|Epimedium davidii|Epimedium dolichostemen|Epimedium fargesii|Epimedium franchetii|Epimedium grandiflorum|Epimedium koreanum|Epimedium leishanense|Epimedium leptorrhizum|Epimedium membranaceum|Epimedium myrianthum|Epimedium pauciflorum|Epimedium pubescens|Epimedium sagittatum|Epimedium sempervirens|Epimedium stellatum|Epimedium wushanense|Epimedium zhenbaense|Epimedium zhushanense|Epirrhoe sperryi|Equisetum hiemale|Equisetum hyemale|Eragrostis viscosa|Eremocarpus setiger|Eremostachys moluccelloides|Ericameria diffusa|Erigeron annuus|Erinaceus europaeus|Eriocephalus pauperrimus|Eriostemon spicatus|Eriostemon thryptomenoides|Eriostemon tomentellus|Erodium stephanianum|Eruca vesicaria|Erysimum canescens|Erysimum odoratum|Erysimum siliculosum|Erythrina pallida|Erythrina sacleuxii|Erythrophleum couminga|Erythrospermum zeylanicum|Erythroxylum microphyllum|Erythroxylum passerinum|Escherichia coli NT1005/CadA-lysA-dapA-cadB [CadA lysA dapA cadB]|Esox saurus|Etlingera elatior|Eucalyptus australiana|Eucalyptus camaldulensis|Eucalyptus camaldulensis var. pendula|Eucalyptus resinifera|Eucalyptus sieberiana|Eucommia ulmoides|Eugenia edulis|Eugenia jambolana|Eugenia uniflora|Eumorphia sericea|Eunicella cavolinii|Euonymus alatus|Euonymus nanoides|Eupatorium birmanicum|Eupatorium lindleyanum|Eupatorium perfoliatum|Eupatorium villosum|Euphorbia geniculata|Euphorbia helioscopia|Euphorbia hirta|Euphorbia humifusa|Euphorbia lunulata|Euphorbia magalanta|Euphorbia myrsinites|Euphorbia officinarum|Euphorbia pannonica|Euphorbia prostrata|Euphorbia sapinii|Euphorbia virgata|Euphrasia genargentea|Euphrasia stricta|Euphydryas cynthia|Euplotes raikovi|Eupolyphaga sinensis|Eurycoma harmandiana|Euterpe precatoria|Eutypella scoparia|Evernia vulpina|Fabiana densa|Fagara zanthoxyloides|Fagopyrum tataricum|Fagraea gracilipes|Fallopia multiflora|Ficus alba|Ficus cordata subsp. salicifolia|Ficus mucuso|Ficus sarmentosa var. thunbergii|Flemingia chappar|Flindersia dissosperma|Foeniculum vulgare|Fomes robiniae|Fomitopsis insularis|Forsteronia refracta|Fragaria x ananassa|Fridericia chica|Fritillaria ningguoensis|Frullania tamarisci|Fumaria micrantha|Fusarium oxysporum|Fusarium roseum|Galenia africana|Galium dasypodum|Ganoderma lucidum|Ganoderma sinense|Garcinia macrophylla|Garcinia pseudoguttifera|Garcinia pyrifera|Garcinia xipshuanbannaensis|Gardenia sootepensis|Gardneria insularis|Garrya elliptica|Genista cinerea|Gentiana manshurica|Gentiana rigescens|Gentiana scabra|Gentiana thunbergii|Gentiana triflora|Geranium carolinianum|Geranium thunbergii|Geranium wilfordii|Gesneria cardinalis|Ginkgo biloba|Glinus lotoides|Globba malaccensis|Glochidion sphaerogynum|Glossocalyx brevipes|Glycine max|Glycine tomentella|Glycyrrhiza lepidota|Glycyrrhiza pallidiflora|Glycyrrhiza uralensis|Gnidia lamprantha|Goldfussia yunnanensis|Gouania microcarpa|Grataegus pinnatifida|Greenwayodendron oliveri|Gremmeniella abietina|Grewia mollis|Guarea trichilioides|Gutierrezia lucida|Gutierrezia microcephala|Gutierrezia wrightii|Gymnanthemum amygdalinum|Gymnocarpium robertianum|Gymnothorax javanicus|Gynostemma cardiospermum|Gynoxys nitida|Haematococcus lacustris|Haliclona tubifera|Halobacillus litoralis|Halobacterium salinarum|Halocarpus biformis|Haplopappus foliosus|Hedeoma multiflora|Hedysarum caucasicum|Hedysarum sericeum|Helianthus divaricatus|Helichrysum davenportii|Helichrysum graveolen|Helichrysum graveolens|Helichrysum lepidissimum|Helicteres angustifolia|Heliotropium amplexicaule|Heliotropium bovei|Heliotropium eichwaldii|Heliotropium floridum|Heliotropium hirsutissimum|Helleborus multifidus|Heterotheca grandiflora|Heterotheca inuloides|Heuchera cylindrica|Hippeastrum papilio|Hippocratea excelsa|Hippocratea mucronata|Hippophae rhamnoides|Hoffmannia strigillosa|Holboellia fargesi|Homo sapiens|Hopea utilis|Houttuynia cordata|Hovenia acerba|Humulus lupulus|Hunteria zeylanica|Hydrangea serrata|Hygrophorus chrysodon|Hymenothrix wislizenii|Hypericum ascyron|Hypericum japonicum|Hypericum oblongifolium|Hypericum perforatum|Hypericum reflexum|Hypericum revolutum|Hypericum sampsonii|Hypoxis multiceps|Hypoxylon rubiginosum|Hypsizygus ulmarius|Iberis amara|Ichthyothere terminalis|Idea leuconoe|Ideopsis similis|Ilex amara|Ilex dumosa|Ilex hainanensis|Ilyonectria destructans|Impatiens balsamina|Impatiens capensis|Indigofera linnaei|Indigofera spicata|Inga velutina|Inocybe geophylla|Inula britannica|Inula britannica var.chinensis|Inula japonica|Inulanthera calva|Io fluvialis|Iochroma australe|Ipomoea aquatica|Ipomoea batatas|Ipomoea reptans|Ips confusus|Ircinia dendroides|Iryanthera paraensis|Isaria felina|Isatis tinctoria|Isodon japonicus|Ixeris chinensis|Ixeris debilis|Ixeris stolonifera|Ixora coccinea|Iyengaria stellata|Jacaranda chelonia|Jacobaea subalpina|Jamesoniella colorata|Jasminum multiflorum|Jnula britannica|Juglans nigra|Juglans sieboldiana|Juniperus ashei|Juniperus rigida var. conferta|Justicia ciliata|Justicia hayatai|Justicia paniculata|Kaempferia galanga|Kaempferia marginata|Kaempferia rotunda|Kalanchoe blossfeldiana|Kalmia latifolia|Kaunia saltensis|Khaya ivorensis|Khaya senegalensis|Knautia montana|Knautia silvatica|Knightia excelsa|Koelreuteria henryi|Kopsia hainanensis|Krameria lappacea|Kuehneromyces mutabilis|Kummerowia striata|Lactarius spinosulus|Lactobacillus casei|Lactuca sativa|Lactuca serriola|Lafoensia glyptocarpa|Lagochilus leiacanthus|Larix cajanderi|Lasiosiphon kraussianus|Lastrea thelypteris|Lathyrus nissolia|Laurencia distichophylla|Laurentia longiflora|Laurus nobilis|Lavandula pedunculata|Lecidella chodati|Leguminosae|Leitneria floridana|Lemaireocereus griseus|Lentinus tigrinus|Leonurus glaucescens|Leonurus persicus|Lepidium draba|Lepidium sativum|Lepidosperma ustulatum|Lepraria citrina|Leptogorgia gilchristi|Lespedeza virgata|Leucopaxillus cerealis|Leucopaxillus giganteus|Leucopaxillus tricolor|Leuzea centauroides|Levisticum officinale|Liatris gracilis|Libocedrus plumosa|Ligularia lamarum|Lilium brownii|Lilium lancifolium|Lilium longiflorum Thunb.|Lilium pumilum|Limnocharis flava|Lindera aggregata|Lindera strichnifolia|Lippia mexicana|Lissoclinum fragile|Litsea salicifolia|Lobophytum durum|Lonchocarpus orotinus|Lonicera japonica|Lotus japonicus|Lotus polyphyllos|Lunularia cruciata|Lupinus multiflorus|Lupinus sericeus|Lupinus verbasciformis|Lycopersicon esculentum|Lycopodium flabelliforme|Lysimachia capillipes|Lysimachia christinae|Lysimachia fordiana|Maba buxifolia|Macadamia ternifolia|Magnolia sieboldii|Magnolia sprengeri|Maianthemum atropurpureum|Malus domestica|Malus pumila|Malus sieversii|Mangifera indica|Marasmiellus troyanus|Markhamia stipulata|Maytenus chuchuhuasha|Maytenus hookeri|Maytenus loeseneri|Maytenus serrata|Meconopsis betonicifolia|Melaleuca rhaphiophylla|Melanophryniscus moreirae|Melia azedarach|Melia azedarach var. toosendan|Melicope sarcococca|Menegazzia asahinae|Meriandra dianthera|Mesembryanthemum expansum|Methylobacterium organophilum|Microglossa pyrrhopappa|Micromelum tephrocarpum|Micromeria pineolens|Micromonospora carbonacea|Microtropis fokienensis|Millettia erythrocalyx|Millettia ferruginea|Mimosa acacioides|Minthostachys tomentosa|Mitracarpus scaber|Mitragyna speciosa|Mollugo pentaphylla|Mollugo spergula|Monascus pilosus|Monochaetia compta|Monodora brevipes|Monomorium floricola|Morinda citrifolia|Morinda morindoides|Moringa oleifera|Mortierella elongata|Morus alba|Morus bombycis|Morus rubra|Murraya exotica|Murraya kwangsiensis|Murraya paniculata|Mussaenda parviflora|Mycobacterium leprae|Mycobacterium tuberculosis|Myristica fragrans|Myrsine capitellata|Nama hispidum|Narcissus concolor|Narcissus obesus|Nassauvia cumingii|Nasturtium officinale|Nauclea officinalis|Negombata magnifica|Nelumbo nucifera|Nemalion vermiculare|Neobellieria bullata|Neonotonia wightii|Neophaeosphaeria quadriseptata|Nepeta multifida|Nephelium lappaceum|Nerium oleander|Neurolaena venturana|Nicotiana affinis|Nicotiana debneyi|Nicotiana raimondii|Nicotiana undulata|Nidula candida|Notholaena aschenborniana|Notholaena standleyi|Ochna beddomei|Ocimum pilosum|Ocotea heterochroma|Ocotea pulchella|Odontites rubra|Omphalotus nidiformis|Oncoba echinata|Ongokea klaineana|Onobrychis cyri|Onobrychis vassiltschenkoi|Onobrychis viciifolia|Ononis leiosperma|Ononis vaginalis|Ophiocoma scolopendrina|Ophiocordyceps sinensis|Ophioglossum petiolatum|Ophiolepis superba|Ophioparma ventosa|Ophiopogon chekiangensis|Ophiorrhiza blumeana|Ophryosporus floribundus|Oreoherzogia fallax|Ormosia balansae|Ormosia nobilis|Orostachys fimbriata|Orostachys japonicus|Oroxylum indicum|Orthosiphon spicatus|Osmanthus heterophyllus|Osmorhiza aristata|Osteophloeum platyspermum|Osteospermum fruticosum|Oxalis purpurea|Oxytropis falcata|Paeonia albiflora|Paeonia lactiflora|Paeonia rockii|Paeonia suffruticosa|Pajanelia multijuga|Panax ginseng|Panax ginseng C.A.Meyer|Panax papyrifer|Panax schinseng|Panzeria canescens|Papaver hybridum|Papaver strigosum|Papaver tatricum|Papilio phorcas|Papularia sphaerosperma|Parabenzoin trilobum|Paraburkholderia caryophylli|Paralemnalia clavata|Parmelia subrudecta|Passiflora incarnata|Payena lucida|Pedicularis longiflora|Peganum harmala|Pellia endiviaefolia|Pellicularia filamentosa|Peltiphyllum peltatum|Peltogyne porphyrocardia|Peltogyne pubescens|Peltophorum africanum|Penicillium citreonigrum|Penicillium lapidosum|Penicillium olsonii|Penicillium paxilli|Penstemon gentianoides|Pericome caudata|Periploca calophylla|Perovskia abrotanoides|Persicaria glabra|Persicaria hydropiper|Persicaria orientalis|Persicaria tinctoria|Pestalotiopsis guepinii|Petriella sordida|Petrorhagia dubia|Petroselinum crispum|Petrosia hebes|Petrosimonia monandra|Peucedanum palustre|Phaenocoma prolifera|Phalaenopsis aphrodite|Phalaris canariensis|Phaseolus vulgaris|Phegopteris connectilis|Phelline lucida|Phellodendron amurense|Phellodendron amurense var.wilsonii|Phomopsis leptostromiformis|Phorbas amaranthus|Phycopsis terpnis|Phyllanthus discoideus|Phyllanthus emblica|Phyllanthus urinaria|Phyllogeiton zeyheri Sond.|Physalis solanaceus|Picea obovata|Picris conyzoides|Picrorhiza kurrooa|Pieris napi|Pilocarpus spicatus|Pinguicula vulgaris|Pinus brutia var. eldarica|Pinus brutia var. pityusa|Piper lanceifolium|Piper sanctum|Piper taboganum|Piper umbellatum|Piptostigma fugax|Pisum sativum|Pittocaulon velatum|Plantago bellardi|Plectranthus mollis|Plectranthus purpuratus|Plenodomus tracheiphilus|Pleogyne cunninghami|Pleogyne cunninghamii|Pleurotus japonicus|Plinia cauliflora|Pluchea suaveolens|Plumbagella micrantha|Podocarpus fasciculus|Podocarpus salignus|Pogostemon cablin|Pojarkovia stenocephala|Polycephalomyces nipponicus|Polygala amara|Polygala nyikensis|Polygala reinii|Polygonatum multiflorum|Polygonum aviculare|Polygonum cuspidatum|Polyporus dryadeus|Pongamiopsis pervilleana|Populus angustifolia|Porophyllum ruderale|Portulaca oleracea|Potentilla chinensis|Primula integrifolia|Prorocentrum micans|Prosopis ruscifolia|Prumnopitys ferruginoides|Prunus armeniaca|Prunus domestica|Prunus dulcis|Prunus lusitanica|Prunus mahaleb|Prunus persica|Pseudaegle trifoliata|Pseudallescheria boydii|Pseudeurotium zonatum|Pseudoceratina arabica|Pseudognaphalium affine|Psychotria bahiensis|Psychotria serpens|Ptarmica ptarmicifolia|Pteridium aquilinum|Pteris australis|Pteris dactylina|Pteris semipinnata|Pterocladiella tenuis|Pterodon emarginatus|Pterogyne nitens|Pterolobium hexapetalum|Pterospermum lanceaefolium|Ptilocaulis walpersi|Pulsatilla campanella|Punica granatum|Punica granatum L.|Purpura aperta|Pycnandra acuminata|Pyrola decorata|Pyrostegia venusta|Pyrrosia lingua|Quercus gilva|Quercus serrata|Quercus sessiliflora|Radermachera xylocarpa|Radix et rhizoma rhodiolae|Rana amurensis|Ranunculaceae|Ranunculus acris|Ranunculus asiaticus|Ranunculus peltatus|Rapanea lancifolia|Raphanus sativus|Ratibida mexicana|Reaumuria mucronata|Remirea maritima|Reseda muricata C.Presl.|Retama duriaei|Rhamnus davurica|Rhamnus disperma|Rhaponticum carthamoides|Rheum moorcroftianum|Rheum tataricum|Rhinella arenarum|Rhodiola crenulata (HOOK.f.et Thoms.) H.OHBA|Rhodiola rosea|Rhodiola sachalinensis|Rhodiola sacra|Rhododendron dauricum|Rhododendron huianum|Rhododendron luteum|Rhododendron micranthum|Rhododendron mucronatum|Rhododendron ungerni|Rhodomicrobium vannielii|Rhus parviflora|Rhus wallichi|Ribes nigrum|Ribes uva-crispa|Rivina humilis|Roboastra tigris|Rodgersia podophylla|Rosa americana|Rosa chinensis|Rosa rugosa|Rosulabryum capillare|Rubia schumanniana|Rubrivivax gelatinosus|Rubus arcticus|Rubus chingii|Rubus coreanus|Rubus idaeus|Rubus rosa|Ruellia rosea|Rusavskia elegans|Russula japonica|Russula vesca|Ruta pinnata|Sabal causiarum|Saccharomyces pastori|Salacia elliptica|Salacia madagascariensis|Salmonella enterica subsp. enterica serovar muenster|Salvia digitaloides|Salvia dorrii|Salvia farinacea|Salvia folium|Salvia hispanica|Salvia miltiorrhiza|Samadera indica|Sapium sebiferum|Sarcandra glabra|Sargassum muticum|Sargassum thunbergii|Sasa paniculata|Sassafras officinalis|Saussurea carthamoides|Saxifraga azizoon|Scabiosa succisa|Schefflera capitata|Schistostephium rotundifolium|Schizonepeta multifida|Schizophyllum lobatum|Scilla maritima|Scolopia chinensis|Scorzonera pseudodivaricata|Sedum ewersii|Sedum forsteri|Sedum litoreum|Sedum sarmentosum|Semecarpus vitiensis|Senecio mexicanus|Senecio paludaffinis|Senecio renardii|Senecio rupestris|Senecio sandersonii|Senecio speciosus|Senecio viravira|Senecio viscosus|Senegalia catechu|Senna alexandrina|Senna siamea|Septoria pistaciarum|Serratula wolffii|Setosphaeria turcica|Sextonia rubra|Sideritis nutans|Sideritis soluta|Sideritis syriaca|Sideritis trojana|Siegesbeckia pubescens|Sigesbeckia glabrescens|Silene tatarica|Silphium perfoliatum L.|Silybum marianum|Simsia foetida|Sinapis alba|Sinningia cardinalis|Sinoadina racemosa|Sinocrassula indica|Sinopodophyllum hexandrum|Sinularia molesta|Siphocampylus verticillatus|Siphonoglossa mexicana|Smilax china|Smilax glabra|Smilax glyciphylla|Smilax sieboldi|Solanum acaule|Solanum aculeatissimum|Solanum elaeagnifolium|Solanum lanceolatum|Solanum lycopersicum|Solanum melongena|Solanum nigrum|Solanum tuberosum|Solenopsis punctaticeps|Sophora angustifolia|Sophora exigua|Sophora japonica|Sophora moorcroftiana|Sophora tometosa|Sparganium stoloniferum|Sperganium stoloniferum|Spinacia oleracea|Spinulum annotinum|Spodoptera eridania|Sporobolus cynosuroides|Stenomesson miniatum|Stephania epigaea|Stephania sutchuenensis|Sterculia platanifolia|Stereocaulon leprocauloides|Stevia connata|Stevia polycephala|Stichopus chloronotus|Stipa vaseyi|Streptomyces albus|Streptomyces blastmyceticus|Streptomyces cellulosae TES17|Streptomyces chattanoogensis|Streptomyces coelicolor|Streptomyces fervens|Streptomyces filamentosus|Streptomyces flocculus|Streptomyces fumanus|Streptomyces griseochromogenes|Streptomyces griseovariabilis|Streptomyces lavendofoliae|Streptomyces lavendulae|Streptomyces lomondensis|Streptomyces matensis|Streptomyces odorifer|Streptomyces orinoci|Streptomyces parvisporogenes|Streptomyces paulus|Streptomyces resistomycificus|Streptomyces sparsogenes|Streptomyces viridogenes|Streptomyces yokosukanensis|Strychnos tricalysioides|Strychnos vacacoua|Styphnolobium japonicum|Suillus tridentinus|Swertia decussata|Swertia delavayi|Swertia japonica|Swertia paniculata|Syncarpia hillii|Synoicum pulmonaria|Syphonota geographica|Syringa vulgaris|Syzygium aromaticum|Syzygium cumini|Syzygium nervosum|Tachigalia paniculata|Tagetes lucida|Talaromyces coalescens|Tamarix chinensis|Tanacetum argenteum|Tanacetum nubigenum|Tanacetum parthenifolium|Taraxacum bicorne|Tarenaya spinosa|Targionia hypophylla|Taxus brevifolia|Taxus wallichiana var. chinensis|Teclea boiviniana|Tephrosia elata|Tephrosia platycarpa|Tephrosia pumila|Tephrosia vogelii|Tetraneuris acaulis|Tetrapanax papyriferus|Teucrium asiaticum|Teucrium depressum|Thalictrum cultratum|Thalictrum filamentosum|Thaminophyllum multiflorum|Thamnosma rhodesica|Theobroma grandiflorum|Thermoplasma acidophilum|Thermopsis alpina|Thermopsis dolichocarpa|Thermopsis mollis|Thesium chinense|Thevetia peruviana|Thorecta marginalis|Thymus piperella|Thymus quinquecostatus|Thymus vulgaris|Tilia miqueliana|Tipuana tipu|Toddalia floribunda|Torreya fargesii var. yunnanensis|Toxicodendron vernicifluum|Triaenophora rupestris|Trichilia rubescens|Trichoderma polysporum|Trichodesma incanum|Trichophyton megnini|Trididemnum cyanophorum|Trigonella foenum-graceum|Trigonella grandiflora|Trikentrion flabelliforme|Tripolium pannonicum|Trogoderma granarium|Trollius europaeus|Tropaeolum majus|Turbinaria ornata|Turbo argyrostoma|Turraea nilotica|Turricula parryi|Tussilago farfara|Typha angustifolia|Typha orientalis|Uncaria guianensis|Uncaria laevigata|Uncaria macrophylla|Ungernia sewerzowi|Unonopsis glaucopetala|Urena lobata|Urochloa decumbens|Urtica dioica|Usnea florida|Usnea japonica|Uvaria acuminata|Uvaria calamistrata|Vaccinium corymbosum|Vaccinium macrocarpon|Vaccinium vitis-idaea|Valeriana fedtschenkoi|Vallota purpurea|Vellozia candida|Vepris pilosa|Veratrum stenophyllum|Verbascum fruticulosum|Verbena officinalis|Vernonia anisochaetoides|Vernonia pachyclada|Vibrio parahaemolyticus|Viburnum chingii|Viburnum erubescens|Vicia amoena|Vicia amurensis|Vicia benghalensis|Vicia faba|Vidalia volubilis|Vigna radiata|Vigna unguiculata|Viguiera stenoloba|Vinca minor|Virola multinervia|Viscaria viscosa|Vismia jefensis|Vismia laurentii|Vitis silvestris|Vitis vinifera|Walsura tubulata|Warburgia stuhlmannii|Widely distributed in plant|Wikstroemia viridiflora|Wyethia mollis|Xanthium pungens|Xanthorhiza simplicissima|Xanthorrhoea preissii|Xanthorrhoea resinosa|Xenia florida|Xenia obscuronata|Xenoacremonium recifei|Xylopia brasiliensis|Zanthoxylum chiriquinum|Zanthoxylum fraxineum|Zieria smithii|Zingiber officinale|Zingiber spectabile|microtea debilis

>  <collections>  (71) 
ANPDB|AfroCancer|AnalytiCon Discovery NPs|Australian natural products|BIOFACQUIM|BitterDB|CMAUP (cCollective molecular activities of useful plants)|ChEBI NPs|ChemSpider NPs|ConMedNP|DrugBankNP|EMNPD|ETM (Ethiopian Traditional Medicine) DB|Exposome-explorer|FooDB|GNPS (Global Natural Products Social Molecular Networking)|HIM (Herbal Ingredients in-vivo Metabolism database)|HIT (Herbal Ingredients Targets)|InPACdb|InflamNat|KNApSaCK|Latin America dataset|Mitishamba database|NANPDB (Natural Products from Northern African Sources)|NPACT|NPASS|NPCARE|NPEdia|NuBBEDB|Phenol-explorer|Phyto4Health|PubChem NPs|ReSpect|SANCDB|StreptomeDB|Super Natural II|TCMDB-Taiwan (Traditional Chinese Medicine database)|TCMID (Traditional Chinese Medicine Integrated Database)|TIPdb (database of Taiwan indigenous plants)|TPPT (Toxic Plants–PhytoToxins)|UEFS (Natural Products Databse of the UEFS)|UNPD (Universal Natural Products Database)|VietHerb|Watermelon|p-ANAPL

>  <dois>  (71) 
10.1002/9780470744307.gat218|10.1002/food.19880321030|10.1002/jcp.10340|10.1007/s10600-007-0056-7|10.1007/s11130-012-0286-0|10.1016/S0031-9422(00)97838-5|10.1016/S0963-9969(99)00095-2|10.1016/j.bbrc.2008.07.131|10.1016/j.bmc.2009.06.057|10.1016/j.bmc.2009.08.036|10.1016/j.bmc.2010.01.046|10.1016/j.bmcl.2010.10.058|10.1016/j.bmcl.2012.02.064|10.1016/j.bmcl.2013.04.013|10.1016/j.bmcl.2015.04.045|10.1016/j.bmcl.2015.05.089|10.1016/j.bmcl.2015.07.017|10.1016/j.cbi.2008.10.048|10.1016/j.foodchem.2009.03.042|10.1016/j.foodchem.2020.128444|10.1016/j.foodcont.2014.02.001|10.1016/j.foodres.2019.108899|10.1016/j.jep.2006.09.006|10.1016/j.jep.2007.10.011|10.1016/j.phytochem.2008.01.006|10.1016/j.sajb.2011.10.004|10.1016/j.synbio.2021.09.004|10.1021/acs.jnatprod.5b00877|10.1021/acs.jnatprod.6b00981|10.1021/acs.jnatprod.7b00063|10.1021/acs.jnatprod.9b00262|10.1021/acs.jnatprod.9b01030|10.1021/np020018i|10.1021/np0302854|10.1021/np060369n|10.1021/np0605539|10.1021/np070489a|10.1021/np100896w|10.1021/np200188w|10.1021/np300204p|10.1021/np4005163|10.1021/np400717m|10.1021/np50032a022|10.1021/np50057a037|10.1021/np50096a027|10.1021/np8008122|10.1021/np960451q|10.1021/np970025k|10.1021/np970569m|10.1021/np990271r|10.1038/sj.ejcn.1602744|10.1071/bt9690133|10.1080/01635580802100851|10.1080/246-1071576021000016472|10.1093/pcp/pcn183|10.1111/1750-3841.12404|10.1111/1750-3841.15463|10.1155/2007/45673|10.1158/1535-7163.MCT-08-0236|10.1186/s12906-015-0838-6|10.1186/s12906-015-0873-3|10.1186/s12906-018-2154-4|10.1371/journal.pone.0207278|10.3329/bjsir.v41i1.276|10.3390/molecules24162945|10.3390/molecules24183212|10.3390/molecules25010011|10.3390/plants11030377|10.4161/cbt.7.7.6164|10.5897/JMPR.9000078

>  <synonyms>  (71) 
520-18-3|Kaempherol|Robigenin|Populnetin|Rhamnolutein|Trifolitin|Kempferol|Swartziol|3|4'|5|7-Tetrahydroxyflavone|Pelargidenolon|Indigo Yellow|Campherol|Kampferol|Nimbecetin|3|5|7-Trihydroxy-2-(4-hydroxyphenyl)-4H-chromen-4-one|Kaemferol|5|7|4'-Trihydroxyflavonol|Pelargidenolon 1497|3|5|7-Trihydroxy-2-(4-hydroxyphenyl)-4H-1-benzopyran-4-one|C.I. 75640|Kampcetin|CCRIS 41|4H-1-Benzopyran-4-one| 3|5|7-trihydroxy-2-(4-hydroxyphenyl)-|Flavone| 3|4'|5|7-tetrahydroxy-|NSC 407289|NSC 656277|EINECS 208-287-6|Kempferol;Robigenin|UNII-731P2LE49E|BRN 0304401|3|5|7|4'-Tetrahydroxyflavone|DTXSID7020768|CHEBI:28499|AI3-36096|HSDB 7703|731P2LE49E|3'-DEOXYQUERCETIN|MFCD00016938|CHEMBL150|DTXCID30768|5-18-05-00251 (Beilstein Handbook Reference)|CAS-520-18-3|CI 75640|KAEMPFEROL (IARC)|KAEMPFEROL IARC|SMR000112585|4det|Kaempferol|(S)|KAEMPFEROL MI|Prestwick0_001098|KAEMPFEROL HSDB|KAEMPFEROL INCI|KAEMPFEROL USP-RS|BIDD:PXR0073|Oprea1_650954|SCHEMBL18817|BSPBio_001176|MLS000697730|MLS001055391|MLS001074884|MLS006010737|BIDD:ER0134|SPBio_003058|Kaempferol| analytical standard|BDBM7462|BPBio1_001294|MEGxp0_001283|ACon1_001867|cid_5280863|GTPL11052|HMS1571K18|HMS2098K18|HMS2267I09|HMS3414C03|HMS3656M03|HMS3678C03|HMS3884B13|Kaempferol| >=97.0% (HPLC)|TNP00039|Tox21_201165|Tox21_303363|AC-544|HSCI1_000027|LMPK12110003|s2314|AKOS015895240|Kaempferol| >=90% (HPLC)| powder|CCG-202823|CS-1273|DB01852|GS-3570|NCGC00016480-01|NCGC00091036-01|NCGC00164322-01|NCGC00179275-01|NCGC00257464-01|NCGC00258717-01|BP-25390|HY-14590|KAEMPFEROL (CONSTITUENT OF GINKGO)|Kaempferol 100 microg\/mL in Acetonitrile|SY023424|AB00514046|K0018|NS00001605|SW197199-2|3|4'|5|7-tetrahydroxy-Flavone (7CI|8CI)|C05903|EN300-205764|H10428|S00111|Flavone| 3|4'|5|7-tetrahydroxy- (7CI|8CI)|A828886|Q393336|SR-01000765646|Kaempferol| primary pharmaceutical reference standard|Q-100584|BRD-K12807006-001-05-2|Z57183373|2-(4-hydroxyphenyl)-3|5|7-tris(oxidanyl)chromen-4-one|A91A6666-86C8-4B33-B3EF-F74CD3CD7F47|Kaempferol| United States Pharmacopeia (USP) Reference Standard|3|4'|5|7-Tetrahydroxyflavone| 3|5|7-Trihydroxy-2-(4-hydroxyphenyl)-4H-1-benzopyran-4-one|4H-1-Benzopyran-4-one| 3|5|7-trihydroxy-2-(4-hydroxyphenyl)-5|7|4'-Trihydroxyflavonol|Widely distributed in plant|kaempferol aglycone|kaempferal|FSL0629

>  <cas>  (71) 
520-18-3

$$$$

     RDKit          2D

 22 24  0  0  0  0  0  0  0  0999 V2000
    2.2453    3.0860    0.0000 O   0  0  0  0  0  0  0  0  0  0  0  0
    1.6033    1.7303    0.0000 C   0  0  0  0  0  0  0  0  0  0  0  0
    0.1083    1.6084    0.0000 C   0  0  0  0  0  0  0  0  0  0  0  0
   -0.7448    2.8422    0.0000 O   0  0  0  0  0  0  0  0  0  0  0  0
   -0.5337    0.2527    0.0000 C   0  0  0  0  0  0  0  0  0  0  0  0
   -2.0287    0.1308    0.0000 C   0  0  0  0  0  0  0  0  0  0  0  0
   -2.8818    1.3646    0.0000 C   0  0  0  0  0  0  0  0  0  0  0  0
   -4.3768    1.2427    0.0000 C   0  0  0  0  0  0  0  0  0  0  0  0
   -5.0188   -0.1130    0.0000 C   0  0  0  0  0  0  0  0  0  0  0  0
   -6.5138   -0.2349    0.0000 O   0  0  0  0  0  0  0  0  0  0  0  0
   -4.1657   -1.3468    0.0000 C   0  0  0  0  0  0  0  0  0  0  0  0
   -4.8076   -2.7025    0.0000 O   0  0  0  0  0  0  0  0  0  0  0  0
   -2.6707   -1.2249    0.0000 C   0  0  0  0  0  0  0  0  0  0  0  0
    0.3194   -0.9811    0.0000 O   0  0  0  0  0  0  0  0  0  0  0  0
    1.8145   -0.8592    0.0000 C   0  0  0  0  0  0  0  0  0  0  0  0
    2.6676   -2.0930    0.0000 C   0  0  0  0  0  0  0  0  0  0  0  0
    4.1626   -1.9711    0.0000 C   0  0  0  0  0  0  0  0  0  0  0  0
    5.0157   -3.2049    0.0000 O   0  0  0  0  0  0  0  0  0  0  0  0
    4.8045   -0.6154    0.0000 C   0  0  0  0  0  0  0  0  0  0  0  0
    3.9514    0.6184    0.0000 C   0  0  0  0  0  0  0  0  0  0  0  0
    4.5934    1.9741    0.0000 O   0  0  0  0  0  0  0  0  0  0  0  0
    2.4564    0.4965    0.0000 C   0  0  0  0  0  0  0  0  0  0  0  0
  1  2  2  0
  2  3  1  0
  3  4  1  0
  3  5  2  0
  5  6  1  0
  6  7  2  0
  7  8  1  0
  8  9  2  0
  9 10  1  0
  9 11  1  0
 11 12  1  0
 11 13  2  0
  5 14  1  0
 14 15  1  0
 15 16  2  0
 16 17  1  0
 17 18  1  0
 17 19  2  0
 19 20  1  0
 20 21  1  0
 20 22  2  0
 22  2  1  0
 13  6  1  0
 22 15  1  0
M  END
>  <identifier>  (72) 
CNP0103504.0

>  <canonical_smiles>  (72) 
O=C1C(O)=C(C2=CC=C(O)C(O)=C2)OC2=CC(O)=CC(O)=C12

>  <standard_inchi>  (72) 
InChI=1S/C15H10O7/c16-7-4-10(19)12-11(5-7)22-15(14(21)13(12)20)6-1-2-8(17)9(18)3-6/h1-5,16-19,21H

>  <standard_inchi_key>  (72) 
REFJWTPEDVJJIY-UHFFFAOYSA-N

>  <name>  (72) 
quercetin

>  <iupac_name>  (72) 
2-(3,4-dihydroxyphenyl)-3,5,7-trihydroxy-chromen-4-one

>  <annotation_level>  (72) 
5

>  <total_atom_count>  (72) 
32

>  <heavy_atom_count>  (72) 
22

>  <molecular_weight>  (72) 
302.24

>  <exact_molecular_weight>  (72) 
302.04265

>  <molecular_formula>  (72) 
C15H10O7

>  <alogp>  (72) 
1.99

>  <topological_polar_surface_area>  (72) 
131.36

>  <rotatable_bond_count>  (72) 
1

>  <hydrogen_bond_acceptors>  (72) 
7

>  <hydrogen_bond_donors>  (72) 
5

>  <hydrogen_bond_acceptors_lipinski>  (72) 
7

>  <hydrogen_bond_donors_lipinski>  (72) 
5

>  <lipinski_rule_of_five_violations>  (72) 
0

>  <aromatic_rings_count>  (72) 
3

>  <qed_drug_likeliness>  (72) 
0.43

>  <formal_charge>  (72) 
0

>  <fractioncsp3>  (72) 
0.00

>  <number_of_minimal_rings>  (72) 
3

>  <van_der_walls_volume>  (72) 
239.07

>  <contains_sugar>  (72) 
False

>  <contains_ring_sugars>  (72) 
False

>  <contains_linear_sugars>  (72) 
False

>  <murcko_framework>  (72) 
O1c2ccccc2CC=C1c3ccccc3

>  <np_likeness>  (72) 
1.70

>  <chemical_class>  (72) 
Flavonoids

>  <chemical_sub_class>  (72) 
Flavones

>  <chemical_super_class>  (72) 
Phenylpropanoids and polyketides

>  <direct_parent_classification>  (72) 
Flavonols

>  <np_classifier_pathway>  (72) 
Shikimates and Phenylpropanoids

>  <np_classifier_superclass>  (72) 
Flavonoids

>  <np_classifier_class>  (72) 
Flavonols

>  <np_classifier_is_glycoside>  (72) 
False

>  <organisms>  (72) 
A new engineered strain of Saccharomyces cerevisiae INVSc1 [tHMG1 IDI1 ERG20 ERG9 ERG10 ERG13 ERG12 ERG8 MVD1]|Aaptos ciliata|Abelia chinensis|Abelmoschus esculentus|Abelmoschus manihot|Abies bifolia|Abies excelsa|Abies pinsapo var. marocana|Abutilon theophrasti|Acacia adunca|Acacia arabica|Acacia armata|Acanthopanax senticosus|Acer carpinifolium|Achillea clypeolata|Achillea pseudopectinata|Achillea spinulifolia|Achillea tuzsonii|Acnistus breviflorus|Aconitum gigas|Aconitum kamtschaticum|Aconitum nevadense|Aconitum tasiromontanum|Aconitum violaceum|Acremonium sp.|Acripeza reticulata|Acrotrema uniflorum|Actinidia chinensis|Actinidia kolomikta|Adansonia grandidieri|Adenia fruticosa|Adenocarpus viscosus|Adiantum malesianum|Adina sessilifolia|Adonis sutchuenensis|Aeromonas hydrophila|Aesculus chinensis|Afrocarpus falcatus|Agapanthus inapertus|Agaricus hortensis|Agarum cribrosum|Agathis microstachya|Agelas linnaei|Agelas nakamurai|Ageratina saltillensis|Aglaia elaeagnoidea|Aglaia formosana|Aglaia ignea|Agrimonia pilosa|Ailanthus altissima (Mill.) Swingle|Ajuga genevensis|Alangium kurzii|Alangium premnifolium|Alangium vitiense|Alaria esculenta|Albertisia papuana|Albizia Julibrissin|Albizzia lebbeck|Alectoria divergens|Alectra parasitica|Alexandrium hiranoi|Allagopappus viscosissimus|Allium ampeloprasum|Allium ascalonicum|Allium cepa|Allium myrianthum|Allium neapolitanum|Allium sativum|Allium schoenoprasum|Allium tuberosum|Allium victorialis|Allium waldsteinii|Alnus incana|Aloe africana|Aloe deltoideodonta|Aloe ferox|Aloe vera|Aloe vulgaris|Alphitonia macrocarpa|Alpinia allughas|Alpinia officinarum|Alstonia spathulata|Alternaria japonica|Alternaria kikuchiana|Alternaria macrospora|Alyxia reinwardtii|Amaranthus hypochondriacus|Amathia pinnata|Ambrosia hispida|Ambrosia tenuifolia|Amelanchier alnifolia|Amelanchier oligocarpa|Amomum villosum|Amoora cucullata|Ampelocera edentula|Amphilophis odorata|Amyris marshii|Amyris texana|Anacyclus tomentosus|Anacystis montana|Ananas comosus|Anastatica hierochuntica|Anaxagorea luzonensis A.GRAY|Andrographis echioides|Andropogon jwarancusa|Anethum graveolens|Angelica acutiloba|Angelica keiskei|Angelica lucida|Angelica taiwaniana|Angelica tarokoensis|Anigozanthos rufus|Annona cornifolia|Annona impressivenia|Annona muricata|Anolis lineatopus|Anthemis altissima|Anthemis auriculata|Anthopleura xanthogrammica|Anthoxanthum nitens|Aphis graminum|Aphis pini|Aphyllocladus denticulatus|Apium graveolens|Aplidium orthium|Aplophyllum alberti-regelii|Apocynum venetum|Apterostigma dentigerum|Arabidopsis thaliana|Arctium lappa|Ardisia colorata|Ardisia japonica|Arisarum vulgare|Aristotelia australasica|Armillaria tabescens|Armoracia rusticana|Arnica montana|Aronia arbutifolia|Aronia melanocarpa|Artemisia afra|Artemisia annua L.|Artemisia apiacea|Artemisia argyi|Artemisia assoana|Artemisia capillaries|Artemisia capillaris|Artemisia caucasica|Artemisia dentata|Artemisia dracunculus|Artemisia lactiflora|Artemisia ludoviciana subsp. mexicana|Artemisia mesatlantica|Artemisia montana|Artemisia princeps|Artemisia rehan|Artemisia rupestris|Artemisia sieversiana|Artemisia tournefortiana|Artemisia vestita|Arthrophytum leptocladum|Artocarpus altilis|Asarum heterotropoides|Ascidia ahodori|Asimina parviflora|Aspalathus linearis|Asparagus officinalis|Aspergillus candidus|Aspergillus desertorum|Aspergillus fischeri|Aspergillus mutabilis|Aspergillus unguis|Asplenium septentrionale|Aster batangensis|Aster oharai|Aster ptarmicoides|Aster sedifolius|Aster tataricus|Asterias glacialis|Asterogyne martiana|Asterospicularia laurae|Astilbe myriantha|Astragalus asper|Astragalus cicer|Astragalus ernestii|Astragalus gummifer|Astragalus onobrychis|Astragalus pycnanthus|Astragalus sempervirens|Astragalus spinosus|Atalantia racemosa|Athanasia crithmifolia|Atraphaxis spinosa|Atta cephalotes|Attalea excelsa|Atuna racemosa|Aucuba chinensis|Audouinia tentaculata|Aulacocephalus temmincki|Aulacomnium androgynum|Aulosira fertilissima|Avena sativa|Avrainvillea longicaulis|Axinyssa variabilis|Baccharis magellanica|Baccharis neglecta|Baccharis rosmarinifolia|Bacillus megaterium CGMCC 1.1741|Baeckea crenulata|Balanophora involucrata|Bartramia pomiformis|Bassia muricata|Bauhinia forficata|Bauhinia glauca|Bauhinia purpurea|Beauveria felina|Beilschmiedia anacardioides|Beilschmiedia volckii|Bellium bellidioides|Benzoin praecox|Berberis julianae|Berberis repens|Berkheya zeyheri|Berlinia tomentosa|Berneuxia thibetica|Bersama yangambiensis|Beta vulgaris|Betula exilis|Bidens sulphureus|Bishovia boliviensis|Bistorta officinalis|Bistorta vivipara|Bitis gabonica|Blastochloris viridis|Bleekeria vitiensis|Blumea balsamifera|Boehmeria nivea|Boehmeria pannosa|Bombax ceiba|Bongardia chrysogonum|Boronella koniambiensis|Boronia pinnata|Botrydium granulatum|Botryosphaeria berengeriana|Botrytis cinerea|Brachyspira hyodysenteriae|Bragantia wallichii|Brassica carinata|Brassica carinata Y line|Brassica juncea|Brassica napus|Brassica oleracea|Brassica oleracea var. sabauda|Brassica rapa|Brassica rapa subsp. chinensis|Brassica ruvo|Breea segeta|Brenneria rubrifaciens|Breonia chinensis|Brevibacillus laterosporus|Brickellia cavanillesii|Brickellia vernicosa|Broussonetia papyrifera|Bryonia alba|Bryopteris filicina|Bryum argenteum|Buddleia coriacea|Buddleja cordata|Bugula dentata|Bunias orientalis|Bunodosoma caissarum|Buphane fischeri|Bupleurum chinense|Bupleurum montanum|Bupleurum salicifolium|Burkholderia cepacia|Burkholderia pyrrocinia|Byrsonima coccolobifolia|Byssochlamys fulva|Byssothecium obiones|Bystropogon origanifolius|Cacalia floridana|Cacalia pilgeriana|Caesalpinia tinctoria|Calea rupicola|Calliandra eriophylla|Callicarpa japonica|Calliphora vicina|Calonectria cylindrospora|Calycanthus praecox|Camarops sp.|Campylotropis hirtella|Canarium commune|Canarium strictum|Canella winterana|Capnoides sempervirens|Capparis decidua|Capparis himalayensis|Capparis masaikai|Capparis spinosa|Capsicum annuum|Capsicum tetragonum|Caragana aurantiaca|Cardamine pinnata|Cardiospermum halicacabum|Carica dodecaphylla|Carlina acaulis|Carpinus orientalis|Carthamus tinctorius|Caryopteris glutinosa|Cassipourea gerrardii|Castanea vesca|Castanopsis sclerophylla|Catalpa ovata|Catananche caerulea|Cathormion altissimum|Caulerpa serrulata|Caulocystis cephalornithos|Ceanothus sanguineus|Cedronella canariensis|Cedrus libani|Centaurea aspera|Centaurea calcitrapa|Centaurea horrida|Centaurea huber-morathii|Centaurea linifolia|Centaurea maculosa|Centella asiatica|Centipeda minima|Cephalaria grossheimii|Ceramium rubrum|Cerbera dilatata|Cereus blanckii|Cereus dumortieri|Cereus polyrhizus|Cerinthe minor|Ceriops tagal|Ceropegia dichotoma|Chaenomeles speciosa|Chaetomium globosum|Chaetomium subaffine|Chamaemelum nobile|Chelonia japonica|Chenopodium quinoa|Chlorociboria aeruginascens|Chondrodendron tomentosum|Chromolaena arnottiana|Chrysanthemum indicum|Chrysanthemum morifolium|Chrysanthemum x morifolium|Chrysosplenium echinus|Chrysosporum ovalisporum|Cichorium endivia|Cichorium intybus|Cinchona tucujensis|Cirsium carolinianum|Cirsium japonicum|Cirsium oligophyllum|Cirsium tanakae|Cirsium wallichii|Citrullus lanatus|Citrus aurantium|Citrus hassaku|Citrus latifolia|Citrus limon|Citrus maxima|Citrus natsudaidai|Citrus paradisi|Citrus reticulata|Citrus rugulosa|Citrus sinensis|Citrus tangerina|Citrus trifoliata|Cladiella australis|Cladogynos orientalis|Cladosporium tenuissimum|Clathrotropis brachypetala|Clausena lansium|Clavariopsis aquatica|Cleistopholis staudtii|Clerodendrum bungei|Clethra macrophylla|Clibadium mexiae|Clione antarctica|Clusia ellipticifolia|Cneoridium dumosum|Cneorum pulverulentum|Cnidium officinale|Coccus ilicis|Codonocarpus australis|Codonopsis pilosula|Coelogorgia palmosa|Coffea arabica|Coffea canephora|Colchicum laetum|Coleophoma empetri|Colletotrichum gloeosporioides|Colliguaja salicifolia|Colobocentrotus atratus|Colocasia esculenta|Conocephalum japonicum|Consolida hohenackeri|Consolida oliveriana|Conus mus|Conyza aegyptica|Conyza blinii|Conyza canadensis|Coprinellus flocculosus|Coprinopsis cinerea|Coprosma areolata|Corchorus olitorius|Cordia curassavica|Cordia leucocephala|Cordylanthus kingii|Coreopsis fasciculata|Coreopsis grandiflora|Coriandrum sativum|Corispermum marschallii|Cornus officinalis|Corticium simplex|Cortinarius orellanus|Corydalis calliantha|Corydalis gigantea|Corydalis ochotensis|Corydalis thalictrifolia|Cosmos pringlei|Costus spicatus|Cotula cinerea|Cotyledon secunda|Coutarea latifolia|Craibiodendron henryi|Crambe tatarica|Crangon vulgaris|Craspedia pleiocephala|Craspidospermum verticillatum|Crassocephalum mannii|Crataegus pinnatifida|Crataegus tanacetifolia|Crateva nurvala|Cremastra appendiculata|Crepidiastrum sonchifolium|Crepis foetida|Crescentia cujete|Crinipellis scabella|Crinum defixum|Crinum latifolium|Crinum moorei|Crocus minimus|Crocus sativus|Crotalaria anagyroides|Crotalaria candicans|Crotalaria lachnophora|Crotalaria novae-hollandiae|Croton cascarilloides|Croton cumingii|Croton gratissimus|Croton laccifer|Croton poilanei|Croton tonkinensis|Croton tonkinensis GAGNEP|Cruciata taurica|Cryptocarya lividula|Cryptocarya oblata|Cryptolestes ferrugineus|Cryptotaenia japonica|Cucumis melo|Cucumis sativus|Cucurbita maxima|Cucurbita moschata|Cucurbita pepo|Cunninghamella blakesleeana|Cuphea carthagenensis|Curarea candicans|Curcuma longa|Curvularia coicis|Cuscuta australis|Cuscuta chinensis|Cyanostegia angustifolia|Cycas armstrongii|Cyclamen purpurascens|Cylindrospermum muscicola|Cymodocea nodosa|Cynara humilis|Cynometra lujae|Cynomorium songaricum|Cyrtomium falcatum|Cystophora scalaris|Cystoseira crinita|Cystoseira jabukae|Cytisus caramanicus|Cytophaga hutchinsoni|Dactylorhiza viridis|Daedalea juniperina|Dalbergia nigra|Daldorfia horrida|Daphnandra aromatica|Daphne giraldii|Daphne lancifolia|Daphne oleoides|Daphniphyllum paxianum|Dasymaschalon sootepense|Dasystenella acanthina|Datura ferox|Debregeasia orientalis|Decachaeta thieleana|Delphinium andersoni|Delphinium honanense|Delphinium shawurense|Dendriopoterium menendezii|Dendrobium loddigesii|Dendrodoris krebsii|Dendronephthya griffini|Dendrospora tenella|Derris uliginosa|Descurainia sophia|Desmodium styracifolium|Dichotomaria marginata|Dichotomophthora lutea|Dicranopteris linearis|Dictamnus dasycarpus|Dictyochaeta simplex|Dictyoloma incanescens|Dictyopteris acrostichoides|Dictyopteris australis|Dictyopteris undulata|Dictyota binghamiae|Didemnum solidum|Didymium bahiense|Dimerostemma brasilianum|Dinophysis fortii|Dioscorea althaeoides|Dioscorea japonica|Dioscorea tokoro|Diospyros assimilis|Diospyros eriantha|Diospyros japonica|Diospyros kaki|Diotis maritima|Dipentodon sinicus|Diphasia angolensis|Diphasiastrum thyoides|Diplacus longiflorus|Diplodia natalensis|Diplopterygium glaucum|Dipsacus asper|Dipteronia dyeriana|Dipteryx odorata|Dodonaea polyandra|Dodonaea viscosa|Dolabella californica|Dolichopentas longiflora|Doodia picta|Dorstenia lindeniana|Drechslera avenae|Dryocosmus kuriphilus|Dryopteris crassirhizoma|Duguetia calycina|Dumoria heckeli|Dumortiera hirsuta|Dunalia solanacea|Dysidea amblia|Dysosma delavayi|Dysoxylum cumingianum|Echinacea pallida|Echinarachnius mirabilis|Echinochloa esculenta|Echinopepon bigelovii|Echinosophora koreensis|Echinus auritus|Ectropis bicolor|Ehretia dicksonii|Elaeagnus umbellata|Elatophilus hebraicus|Elegia deusta|Elephantopus hirtiflorus|Elizabethkingia meningoseptica|Elmerrillia papuana|Elsholtzia ciliata|Elsholtzia cristata|Elymus repens|Embelia barbeyana|Embelia parviflora|Embelia schimperi|Enceliopsis argophylla|Entada phaseoloides|Entada rheedei|Ephedra sinica|Ephydatia syriaca|Epichloe festucae var. lolii|Epilobium hirsutum|Epimedium acuminatum|Epimedium brevicornu|Epimedium brevicornum|Epimedium davidii|Epimedium dolichostemen|Epimedium fargesii|Epimedium franchetii|Epimedium grandiflorum|Epimedium koreanum|Epimedium leishanense|Epimedium leptorrhizum|Epimedium membranaceum|Epimedium myrianthum|Epimedium pauciflorum|Epimedium pubescens|Epimedium sagittatum|Epimedium stellatum|Epimedium zhenbaense|Epimedium zhushanense|Epipactis palustris|Epipolasis reiswigi|Epirrhoe sperryi|Equisetum hiemale|Eragrostis curvula|Eremanthus seidelii|Eremostachys glabra|Eria anomala|Eria japonica|Eria mollis|Erica glauca|Ericameria diffusa|Erigeron annuus|Erinaceus europaeus|Eriobotrya japonica|Eriocephalus pauperrimus|Eriocheir sinensis|Eriostemon spicatus|Eriostemon thryptomenoides|Eriostemon tomentellus|Erodium stephanianum|Eruca vesicaria|Erylus trisphaerus|Erysimum leptophyllum|Erysimum odoratum|Erythrina pallida|Erythrina sacleuxii|Erythrophleum couminga|Erythrospermum zeylanicum|Erythroxylum passerinum|Esenbeckia hartmanii|Eskemukerjea megacarpum|Esox saurus|Espeletia moritziana|Etlingera elatior|Eucalyptus alba|Eucalyptus amygdalina|Eucalyptus apodophylla|Eucalyptus australiana|Eucalyptus globulus subsp. bicostata|Eucalyptus maideni|Eucalyptus melliodora|Eucalyptus resinifera|Eucalyptus sieberiana|Euchresta formosana|Eucommia ulmoides|Eudistoma bituminis|Eugenia uniflora|Eumorphia sericea|Eunicella cavolinii|Euodia officinalis|Euodia ruticarpa|Euonymus alatus|Euonymus nanoides|Euonymus sachalinensis|Eupatorium adenophorum|Eupatorium areolare|Eupatorium birmanicum|Eupatorium cannabinum|Eupatorium lindleyanum|Eupatorium petiolare|Eupatorium villosum|Euphorbia|Euphorbia amygdaloides|Euphorbia hirta|Euphorbia humifusa|Euphorbia lunulata|Euphorbia maculata|Euphorbia myrsinites|Euphorbia nematocypha|Euphorbia officinarum|Euphorbia pannonica|Euphorbia pekinensis|Euphorbia sapinii|Euphorbia segetalis|Euphorbia tinctoria|Euphrasia genargentea|Euphydryas cynthia|Eupolyphaga sinensis|Eurya japonica|Eurycoma harmandiana|Eutreptia viridis|Evernia vulpina|Evodia rutaecarpa|Exobasidium vaccinii|Fagopyrum dibotrys|Fagopyrum esculentum|Fagraea gracilipes|Fallopia multiflora|Fallopia multiflora var. ciliinervis|Faramea salicifolia|Felicia erigeroides|Ficus cordata subsp. salicifolia|Ficus sarmentosa var. thunbergii|Filicium decipiens|Flacourtia jangomas|Flemingia chappar|Flemingia grahamiana|Foeniculum vulgare|Fomes robiniae|Fomitopsis insularis|Fragaria indica|Fragaria x ananassa|Fridericia chica|Fritillaria cirrhosa|Fritillaria meleagris|Fritillaria ningguoensis|Fritillaria raddeana|Frullania brittoniae|Frullania tamarisci|Fumaria micrantha|Fusarium oxysporum|Gadus morhua callarias|Galenia africana|Galium album|Galium dasypodum|Gambierdiscus toxicus|Ganoderma sinense|Garcinia hombroniana|Garcinia intermedia|Garcinia macrophylla|Garcinia pseudoguttifera|Garcinia pyrifera|Garcinia xipshuanbannaensis|Gardenia jasminoides|Gardenia sootepensis|Gardenia thailandica|Gardenia turgida|Gardneria insularis|Gaylussacia baccata|Genista cinerea|Gentiana germanica|Gentiana manshurica|Gentiana rigescens|Gentiana scabra|Gentiana triflora|Geranium carolinianum|Geranium thunbergii|Geranium wilfordii|Ginkgo biloba|Glechoma grandis|Gleditsia caspica|Gleditsia japonica|Gleditsia sinensis|Glehnia littoralis|Glinus lotoides|Globba malaccensis|Globularia davisiana|Glochidion sphaerogynum|Gloiopeltis furcata|Glossocalyx brevipes|Glycine max|Glycosmis macrophylla|Glycyrrhiza lepidota|Gmelina asiatica|Gnaphalium cheiranthifolium|Gnetum latifolium|Gnidia lamprantha|Gomphostemma crinitum|Goniothalamus tamirensis|Goodenia ovata|Gouania leptostachya|Gouania microcarpa|Gracilaria textorii|Graphis cognata|Grataegus pinnatifida|Grazielia serrata|Grewia mollis|Grewia villosa|Gutierrezia lucida|Gutierrezia microcephala|Gymnanthemum amygdalinum|Gymnema sylvestre|Gymnocalycium schickendantzii|Gymnocarpium robertianum|Gymnothorax javanicus|Gynoxys nitida|Gypsophila perfoliata|Halobacterium salinarum|Hamamelistes betulae|Haplophyllum ramosissimum|Hedychium villosum|Hedysarum connatum|Helianthopsis microphylla|Helianthus annuus|Helianthus ciliaris|Helianthus divaricatus|Helichrysum|Helichrysum cephaloideum|Helichrysum graveolens|Helichrysum lepidissimum|Helichrysum mixtum|Helichrysum tenuifolium|Helicoverpa zea|Helietta longifoliata|Heliotropium bovei|Heliotropium eichwaldii|Heliotropium floridum|Helipterum roseum|Helleborus multifidus|Hemionitis japonica|Hesperis matronalis|Heterotheca grandiflora|Heterotheca inuloides|Hibiscus sabdariffa|Hibiscus sabdariffa L.|Hippophae rhamnoides|Hippospongia communis|Hoffmannia strigillosa|Holboellia fargesi|Holomelina lamae|Homo sapiens|Hopea brevipetiolaris|Hopea utilis|Houttuynia cordata|Hovenia acerba|Humata pectinata|Humulus lupulus|Hydrangea serrata|Hygrophorus chrysodon|Hymenopappus scabiosaeus|Hymenothrix wislizenii|Hymenoxys insignis|Hypericum ascyron|Hypericum balearicum|Hypericum carinatum|Hypericum japonicum|Hypericum laricifolium|Hypericum oblongifolium|Hypericum perforatum|Hypericum perforatum var.angustifolium|Hypericum polyanthemum|Hypericum revolutum|Hypericum sampsonii|Hypericum scabrum|Hyphear tanakae|Hypolepis punctata|Hypomyces semitranslucens|Hypoxis multiceps|Hyptis brevipes|Iberis amara|Ilex amara|Ilex dumosa|Impatiens balsamina|Indigofera linnaei|Inga velutina|Inocybe geophylla|Inula britannica|Inula japonica|Ipomoea batatas|Ipomoea digitata|Ipomoea reptans|Ips confusus|Ips paraconfusus|Ircinia dendroides|Iryanthera paraensis|Isaria felina|Isaria fumosorosea|Isophysis tasmanica|Ixeris debilis|Ixeris stolonifera|Ixeris tamagawaensis|Jaborosa kurtzii|Jacaranda chelonia|Jackiella javanica|Jacobaea vulgaris|Jamesoniella colorata|Jatropha macrorhiza|Jnula britannica|Juglans nigra|Juglans nigra L.|Juglans regia L.|Juniperus communis|Juniperus drupacea|Juniperus rigida var. conferta|Juniperus utahensis|Justicia ciliata|Justicia hayatai|Justicia paniculata|Justicia secunda|Kadsura heteroclita|Kaempferia marginata|Kali turgidum|Kalmia latifolia|Karwinskia spp.|Khaya ivorensis|Khaya senegalensis|Kielmeyera albopunctata|Kielmeyera coriacea|Kielmeyera corymbosa|Knautia montana|Knightia excelsa|Koelreuteria henryi|Koompassia malaccensis|Kopsia hainanensis|Lactarius vellereus|Lactobacillus casei|Lactobacillus delbrueckii subsp. bulgaricus|Lactuca indica|Lactuca sativa|Lactuca serriola|Laetiporus versisporus|Lafoensia glyptocarpa|Lagochilus leiacanthus|Lamellodysidea herbacea|Lasiosiphon burchellii|Lathyrus nissolia|Latrunculia magnifica|Latua pubiflora|Laurencia distichophylla|Laurencia spectabilis|Laurentia longiflora|Laurus nobilis|Lavandula pedunculata|Lavandula vera|Lawsonia inermis|Leathesia nana|Lecanora nipponica|Leishmania major|Leitneria floridana|Lemaireocereus griseus|Lemaireocereus longispinus|Leonurus glaucescens|Leonurus heterophyllus|Leonurus persicus|Lepidium apetalum|Lepidium draba|Lepidosperma ustulatum|Lepisorus thunbergianus|Lepisorus ussuriensis|Lepraria citrina|Lespedeza bicolor|Leucas neufliseana|Leucopaxillus giganteus|Leuzea centauroides|Liatris gracilis|Libocedrus plumosa|Licania pittieri|Licaria armeniaca|Ligularia cymbulifera|Ligularia kanaitzensis|Ligularia lamarum|Ligustrum lucidum|Lilium brownii|Lilium lancifolium|Lilium pumilum|Lilium umbellatum|Limnocharis flava|Limonium gmelinii|Limonium sinense|Lindera aggregata|Lindera strichnifolia|Lippia citriodora|Lippia graveolens|Lippia mexicana|Lippia sidoides|Lithospermum officinale|Litsea ceylanica|Litsea glutinosa|Litsea salicifolia|Lobelia chinensis|Lobelia st|Lobophytum chevalieri|Lobophytum durum|Lobophytum laevigatum|Lonchocarpus laxiflorus|Lonchocarpus orotinus|Lonicera caerulea|Lonicera confusa|Lonicera confuse|Lonicera dasystyla|Lonicera fulvotomentosa|Lonicera hypoglauca|Lonicera japonica|Lonicera tatarica var. morrowii|Lophozia floerkei|Lotus japonicus|Lotus polyphyllos|Luffa aegyptiaca|Lunularia cruciata|Lupinus verbasciformis|Lycopodium flabelliforme|Lycopus lucidus|Lygodium flexuosum|Lysiana subfalcata|Lysimachia christinae|Lysimachia fordiana|Lysimachia mauritiana|Macadamia ternifolia|Macaranga peltata|Machilus macrantha|Macrothele gigas|Macrozamia macdonnellii|Magnolia montana|Magnolia sieboldii|Magnolia sprengeri|Maharanga bicolor|Malus domestica|Malus doumeri varl formosana|Malus pumila|Malus sieversii|Mammillaria magnimamma|Mangifera indica|Mangifera persiciformis|Mantella aurantiaca|Marasmiellus troyanus|Marine actinobacterium|Markhamia stipulata|Marrubium anisodon|Marrubium cylleneum|Martensia denticulata|Matricaria matricarioides|Maytenus buxifolia|Maytenus chuchuhuasha|Maytenus loeseneri|Maytenus retusa|Maytenus serrata|Medicago sativa|Melaleuca rhaphiophylla|Melanelixia fuliginosa subsp. glabratula|Melia azedarach|Melia azedarach var. toosendan|Melia volkensii|Melilotus tauricus|Menegazzia asahinae|Mentha cardiaca|Mesembryanthemum expansum|Metanarthecium luteoviride|Metapenaeus bennettae|Metasequoia glyptostroboides|Methylobacterium rhodinum|Micarea austroternaria|Microciona eurypa|Microglossa pyrrhopappa|Micromeria pineolens|Microtropis fokienensis|Miliusa velutina|Millettia erythrocalyx|Millettia ferruginea|Millettia rubiginosa|Mimosa diplotricha|Mimosa rubicaulis|Mimusops caffra|Mitragyna speciosa|Modiolus demissus|Mollinedia costaricensis|Mollugo spergula|Momordica charantia|Monascus pilosus|Monochaetia compta|Monodora brevipes|Monomorium floricola|Monsonia senegalensis|Morella rubra|Morinda citrifolia|Morinda morindoides|Mortierella elongata|Morus alba|Morus bombycis|Morus nigra|Mosla chinensis|Mosla japonica|Munronia delavayi|Murraya exotica|Murraya kwangsiensis|Murraya paniculata|Mycobacterium leprae|Mycobacterium tuberculosis|Myosotis sylvatica|Myristica fragrans|Myrsine capitellata|Myxococcus stipitatus|Nama hispidum|Narcissus concolor|Narcissus obesus|Nassauvia cumingii|Nasutitermes ephratae|Nauclea officinalis|Naucleopsis ternstroemiiflora|Nectandra pichurim|Nelumbo nucifera|Nemalion vermiculare|Nematolepis phebalioides|Neobalanocarpus heimii|Neobellieria bullata|Neonectria candida|Neonotonia wightii|Neophaeosphaeria quadriseptata|Nepenthes thorelii|Nerine bowdenii|Nicotiana affinis|Nicotiana debneyi|Nidula candida|Nostoc spongiaeforme|Notholaena aschenborniana|Nuxia oppositifolia|Nymphaea alba L.|Oceanapia ramsayi|Ocimum pilosum|Ocotea pulchella|Odontites rubra|Odontocline hollickii|Oenanthe javanica|Oenothera biennis|Oldenlandia diffusa|Oncoba echinata|Ongokea klaineana|Onobrychis cyri|Onobrychis kachetica|Onobrychis viciifolia|Ononis spinosa|Ononis vaginalis|Onopordum acanthium|Oophaga pumilio|Ophiocoma scolopendrina|Ophioglossum pedunculosum|Ophiolepis superba|Ophioparma ventosa|Ophiopogon chekiangensis|Ophiorrhiza blumeana|Ophryosporus floribundus|Opuntia humifusa|Oreoherzogia fallax|Oreopteris quelpaertensis|Ormosia nobilis|Orthosiphon spicatus|Oryza sativa|Oryza sativa cv. Heugjinjubyeo|Oscillatoria princeps|Oscillochloris trichoides|Osmorhiza aristata|Osteophloeum platyspermum|Osteospermum fruticosum|Osteospermum hyoseroides|Osteospermum muricatum|Oxalis purpurea|Oxytropis falcata|Ozoroa insignis|Paeonia lactiflora|Paeonia rockii|Paeonia suffruticosa|Panax ginseng|Pancratium sickenbergeri|Pangium edule|Papaver hybridum|Papaver tatricum|Papularia sphaerosperma|Parabenzoin trilobum|Parablechnum minus|Paraburkholderia caryophylli|Paralemnalia clavata|Parastrephia lepidophylla|Parmelia subrudecta|Passifloraceae|Pastinaca sativa|Patrinia scabiosifolia|Patrinia villosa|Paulownia tomentosa|Payena lucida|Peganum harmala|Pelargonium graveolens|Pelargonium roseum|Peltogyne pubescens|Peltostigma guatemalense|Penicillium citreonigrum|Penicillium herquei|Penicillium paxilli|Penicillium puberulum|Penicillium thymicola|Penstemon gentianoides|Penstemon mucronatus|Penstemon secundiflorus|Pentaclethra macrophylla|Peperomia vulcanica|Periploca calophylla|Periploca sepium|Perovskia abrotanoides|Persicaria glabra|Persicaria orientalis|Persicaria tinctoria|Petasites hybridus|Petasites japonicus|Petriella sordida|Petroselinum crispum|Petrosimonia monandra|Peucedanum palustre|Peucedanum praeruptorum|Phaeolus schweinitzii|Phalaenopsis aphrodite|Phalaris canariensis|Phaseolus vulgaris|Phebalium gracile|Phebalium stenophyllum|Phebalium whitei|Phedimus kamtschaticus|Phelline lucida|Phellodendron amurense|Phellodendron japonicum MAXIM|Phellodendron wilsonii|Phlogacanthus thyrsiflorus|Phlomoides hamosa|Phoebe pittieri|Phomopsis leptostromiformis|Phora velutina|Phormia regina|Phyllanthus discoideus|Phyllanthus emblica|Phyllanthus niruri|Phyllanthus urinaria|Physalis alkekengi|Physalis edulis|Phytolacca acinosa|Phytolacca thyrsiflora|Phytophthora sojae|Picea jezoensis var. jezoensis|Picris conyzoides|Picrorhiza kurrooa|Pieris napi|Pinguicula vulgaris|Pinus brutia var. eldarica|Pinus densiflora var. densiflora|Piper arboreum|Piper heterophyllum|Piper lanceifolium|Piper regnellii|Piper taboganum|Piper umbellatum|Piptocarpha oblonga|Piptostigma fugax|Pisum sativum|Pityrogramma tartarea|Plagiomnium undulatum|Plantago lundborgii|Plathymenia reticulata|Platycarya strobilacea|Plectranthus myrianthus|Pleione bulbocodioides|Pleione yunnanensis|Plenodomus tracheiphilus|Pleogyne cunninghami|Pleogyne cunninghamii|Pleurotus japonicus|Plumbagella micrantha|Podocarpus fasciculus|Podocarpus salignus|Podolepis longipedata|Pogostemon cablin|Pojarkovia stenocephala|Polycephalomyces nipponicus|Polygala amara|Polygala reinii|Polygonum aviculare|Polygonum cuspidatum|Polygonum orientale|Polypodiodes formosana|Polyporus dryadeus|Polyzonium rosalbum|Pongamiopsis pervilleana|Popillia japonica|Porophyllum ruderale|Portulaca oleracea|Potentilla chinensis|Poupartia borbonica|Pouzolzia occidentalis|Premna odorata|Premna tomentosa|Primula integrifolia|Prorocentrum micans|Prosopis ruscifolia|Prumnopitys ferruginoides|Prunella vulgaris|Prunus armeniaca|Prunus avium|Prunus cerasus|Prunus domestica|Prunus dulcis|Prunus mume|Prunus persica|Pseudaegle trifoliata|Pseudeurotium zonatum|Pseudoalteromonas luteoviolacea|Pseudoceratina arabica|Pseudodistoma arborescens|Psidium guajava|Psoroma pallidum|Psorospermum androsaemifolium BAKER|Psychotria bahiensis|Psychotria klugii|Psychotria stachyoides|Pteridium aquilinum|Pteridium esculentum|Pteris dactylina|Pteris fauriei|Pteris semipinnata|Pterocaulon virgatum|Pterodon emarginatus|Pterospermum lanceaefolium|Pulsatilla campanella|Punica granatum|Punica granatum L.|Purpura aperta|Pycnandra acuminata|Pyrola calliantha|Pyrola decorata|Pyrola japonica|Pyrrosia lingua|Pyrus communis|Quercus gilva|Quercus serrata|Quercus sessiliflora|Quercus suber|Rabdosia excisa|Radermachera xylocarpa|Ramalina sayreana|Rana amurensis|Ranunculus asiaticus|Rapanea lancifolia|Raphanus sativus|Ratibida mexicana|Reaumuria hirtella|Reaumuria mucronata|Remijia pedunculata|Remirea maritima|Retama duriaei|Rhamnaceae|Rhamnus|Rhamnus lotus|Rhinella marina|Rhizobium leguminosarum|Rhizopus stolonifer|Rhodiola rosea|Rhodiola semenovii|Rhododendron dauricum|Rhododendron ellipticum|Rhododendron farrerae|Rhododendron micranthum|Rhododendron mucronatum|Rhododendron tomentosum|Rhododendron ungerni|Rhodomicrobium vannielii|Rhodopseudomonas palustris|Rhus vulgaris|Rhytidoponera metallica|Ribes nigrum|Ribes rubrum|Ribes uva-crispa|Rivina humilis|Rivularia firma|Roboastra tigris|Rodgersia podophylla|Rohdea aurantiaca|Rosa chinensis|Rosa laevigata|Rosa rugosa|Rosulabryum capillare|Rubia schumanniana|Rubrivivax gelatinosus|Rubus arcticus|Rubus chamaemorus|Rubus chingii|Rubus coreanus|Rubus idaeus|Rubus phoenicolasius|Rubus rosa|Rudbeckia hirta|Ruellia rosea|Rumex maritimus|Rumex nepalensis|Rumex obtusifolius|Rusavskia elegans|Russula japonica|Ruta microcarpa|Ruta pinnata|Sabina sargentii|Saccharopolyspora hirsuta|Saccharum spontaneum|Sagittaria sagittifolia|Salacia beddomei|Salacia elliptica|Salta triflora|Salvia clinopodioides|Salvia dorrii|Salvia hispanica|Salvia munzii|Salvia polystachya|Salvia sessei|Salvia syriaca|Salvia urolepis|Samadera indica|Samanea saman|Sambucus nigra|Sapindus emarginatus|Sapium sebiferum|Saprospira grandis|Saracha viscosa|Sarcandra glabra|Sarcococca vagans|Sarcodon aspratus|Sarcophyton elegans|Sarcopoterium spinosum|Sargassum muticum|Sarothra gentianoides|Saururus chinensis|Saussurea amara|Saussurea medusa|Saussurea pulchella|Saxifraga stolonifera|Scabiosa succisa|Scaevola taccada|Scheelea princeps|Schisandra chinensis|Schistostephium rotundifolium|Schizonepeta multifida|Schizophyllum lobatum|Scilla maritima|Scorzonera pseudodivaricata|Scutellaria amoena|Securigera coronilla|Securinega melanthesoides|Sedum cepaea|Sedum litoreum|Sedum obtuso-lineare|Sedum takesimense Nakai|Senecio adenophyllus|Senecio densiflorus|Senecio dolichodoryius|Senecio renardii|Senecio sandersonii|Senecio stabianus|Senecio subdentatus|Senecio viravira|Senecio viscosus|Senegalia catechu|Senna alexandrina|Senna siamea|Septoria pistaciarum|Serratula inermis|Serratula wolffii|Sesbania bispinosa|Sextonia rubra|Shigella dysenteriae|Sia ferox|Sida veronicaefolia|Sidastrum acuminatum|Sidastrum paniculatum|Sideritis euboea|Sideritis foetens|Sideritis kuegleriana|Sideritis soluta|Sideritis syriaca|Sideritis trojana|Siegesbeckia pubescens|Sigesbeckia glabrescens|Silphium perfoliatum L.|Simarouba glauca|Simsia foetida|Sinapis alba|Sindora wallichii|Sinocrassula indica|Sinopodophyllum emodi|Sinularia depressa|Sinularia molesta|Siphocampylus verticillatus|Siphonaria capensis|Siphoneugena densiflora|Sisyrinchium californicum|Smilax bracteata|Smilax china|Smilax glabra|Smilax riparia|Solanaceae|Solanum acaule|Solanum giganteum|Solanum lanceolatum|Solanum laxum|Solanum lycopersicum|Solanum melongena|Solanum nigrum|Solanum pseudoquina|Solanum transcaucasicum|Solanum tuberosum|Solenopsis punctaticeps|Solidago canadensis|Solidago canadensis L.|Solidago gigantea Aiton|Solidago serotina|Sonneratia caseolaris|Sophora angustifolia|Sophora exigua|Sophora flavescens|Sophora japonica|Sophora tometosa|Sophora tonkinensis|Sorbaria sorbifolia|Sorbus aucuparia|Sorbus tianschanica|Sphaerella laricina|Sphagnum rubellum|Spheciospongia vagabunda|Spinacia oleracea|Spinulum annotinum|Spiraea formosana|Spirotropis longifolia|Spongia australis|Spongia bilamellata|Sporobolus cynosuroides|Stauranthus perforatus|Stelletta inconspicua|Stemona saxorum|Stephania elegans|Stephania epigaea|Stephania sutchuenensis|Stephania zippeliana|Sterculia foetida|Stereospermum cylindricum|Stevia aristata|Stevia polycephala|Stilpnopappus pickelii|Stipa vaseyi|Stiretrus anchorago|Streptomyces albus|Streptomyces avermectinius|Streptomyces caespitosus|Streptomyces cellulosae TES17|Streptomyces chattanoogensis|Streptomyces chryseus|Streptomyces coelicolor|Streptomyces ehimensis|Streptomyces fervens|Streptomyces fumanus|Streptomyces griseochromogenes|Streptomyces griseovariabilis|Streptomyces heteromorphus|Streptomyces lavendofoliae|Streptomyces lavendulae|Streptomyces odorifer|Streptomyces olivaceus|Streptomyces parvisporogenes|Streptomyces paulus|Streptomyces sp.|Streptomyces sp. KCTC 0041BP|Streptomyces sp. MUM256|Streptomyces sparsogenes|Streptomyces viridogenes|Strongylocentrotus droebachiensis|Strophanthus kombe|Strychnos dinklagei|Strychnos ligustrina|Strychnos staudtii|Strychnos tomentosa|Strychnos tricalysioides|Styphnolobium japonicum|Suillus bovinus|Swertia decussata|Swertia delavayi|Swertia franchetiana|Swertia japonica|Swertia swertopsis|Syncarpia hillii|Synoicum pulmonaria|Syphonota geographica|Syringa vulgaris|Syringodium isoetifolium|Syzygium aromaticum|Syzygium cumini|Syzygium nervosum|Syzygium polycephaloides|Tagetes lucida|Talaromyces variabilis|Tamarix chinensis|Tanacetum argenteum|Tanacetum parthenifolium|Tapeinosperma pseudojambosa|Taraxacum borealisinense|Taraxacum coreanum|Taraxacum mongolicum|Taraxacum officinale|Taraxacum platycarpum|Tarenaya spinosa|Targionia hypophylla|Taxus brevifolia|Tecoma pentaphylla|Tephrosia elata|Tethya amamensis|Tetragonia tetragonioides|Tetrahymena pyriformis|Tetraneuris acaulis|Teucrium asiaticum|Teucrium depressum|Teucrium yemense|Thalictrum cultratum|Thalictrum filamentosum|Thelephora palmata|Theobroma cacao|Theonella conica|Thermoplasma acidophilum|Thermopsis mollis|Thorecta marginalis|Thuja plicata|Thymus piperella|Thymus quinquecostatus|Thymus vulgaris|Tibouchina semidecandra|Tipuana tipu|Toddalia floribunda|Torreya jackii|Torricellia tiliifolia|Toxicodendron vernicifluum|Trachelospermum asiaticum|Trachelospermum jasminoides|Trachelospermum lucidum|Triaenophora rupestris|Trichia favoginea|Trichilia hirta|Trichoderma koningi|Trichoderma longibrachiatum|Trichoderma polysporum|Trichodesma incanum|Tricholoma columbetta|Trichosanthes rosthornii|Trichosurus vulpecula|Trichothecium sympodiale|Tridachia crispata|Trididemnum cyanophorum|Trifolium montanum|Trifolium pratense|Triglochin maritima|Trikentrion flabelliforme|Tristania conferta|Triticum aestivum|Trogoderma granarium|Trollius chinensis|Tsuga chinensis|Tsuga mertensiana|Turbinaria ornata|Turraea nilotica|Turricula parryi|Tussilago farfara|Typha domingensis|Udotea petiolata|Ulmus americana|Umbelliferae|Umbelliferaen,|Umbilicaria crustulosa|Umbilicaria esculenta|Uncaria gambir|Uncaria laevigata|Ungnadia speciosa|Unonopsis glaucopetala|Urbanodendron verrucosum|Urena lobata|Urochloa decumbens|Urtica dioica|Urtica triangularis|Usnea florida|Usnea undulata|Utricularia australis|Uvaria acuminata|Vaccinium alaskaense|Vaccinium angustifolium|Vaccinium corymbosum|Vaccinium deliciosum|Vaccinium macrocarpon|Vaccinium myrtillus|Vaccinium ovatum|Vaccinium parvifolium|Vaccinium vitis-idaea|Valeriana fedtschenkoi|Vallota purpurea|Vateria copallifera|Vatica albiramis|Vellozia candida|Vellozia nanuzae|Venus casina|Venus mercenaria|Veratrum stenophyllum|Veratrum viride|Verbascum fruticulosum|Vernonia anisochaetoides|Vernonia cistifolia|Vernonia fagifolia|Vernonia leopoldi|Veronica arvensis|Veronica longifolia|Veronica polita|Vibrio parahaemolyticus|Viburnum chingii|Viburnum erubescens|Viburnum lantana L.|Viburnum opulus L.|Viburnum plicatum Thunb.|Viburnum rhytidophyllum Hemsl.|Viburnum tinus L.|Viburnum x bodnantense Aberc.|Vicia faba|Vidalia volubilis|Vigna mungo|Vigna umbeuata|Vigna unguiculata|Viguiera incana|Viguiera linearis|Viguiera procumbens|Viguiera stenoloba|Vinca minor|Virgilia divaricata|Viscaria viscosa|Vitellaria paradoxa|Vitex negundo|Vitis betulifolia|Vitis vinifera|Waltheria americana|Warburgia stuhlmannii|Wedelia prostrata|Wikstroemia chamaedaphne|Wikstroemia retusa|Wikstroemia viridiflora|Wilcoxia viperina|Wyethia mollis|Xanthium pungens|Xanthoceras sorbifolia Bunge|Xanthorhiza simplicissima|Xanthoria aureola|Xanthorrhoea resinosa|Xenia florida|Xenia obscuronata|Xenoacremonium recifei|Xenorhabdus szentirmaii|Xyris pteygoblephara|Yarrowia lipolytica ST5204 [crtYB crtI]|Zanthoxylum chiriquinum|Zanthoxylum fagara|Zanthoxylum fraxineum|Zanthoxylum monophyllum|Zanthoxylum tetraspermum|Zieria smithii|Ziziphus jujuba|Ziziphus zizyphus|acer mono|croton crassifolius|siegesbeckia glabrescens

>  <collections>  (72) 
ANPDB|AfroCancer|AfroDB|AnalytiCon Discovery NPs|Australian natural products|BIOFACQUIM|BitterDB|CMAUP (cCollective molecular activities of useful plants)|ChEBI NPs|ChemSpider NPs|ConMedNP|DrugBankNP|EMNPD|ETM (Ethiopian Traditional Medicine) DB|Exposome-explorer|FooDB|GNPS (Global Natural Products Social Molecular Networking)|HIM (Herbal Ingredients in-vivo Metabolism database)|HIT (Herbal Ingredients Targets)|InPACdb|InterBioScreen Ltd|KNApSaCK|Latin America dataset|Mitishamba database|NANPDB (Natural Products from Northern African Sources)|NPACT|NPASS|NPCARE|NPEdia|NuBBEDB|Phenol-explorer|Phyto4Health|PubChem NPs|ReSpect|SANCDB|Specs Natural Products|StreptomeDB|Super Natural II|TCMDB-Taiwan (Traditional Chinese Medicine database)|TCMID (Traditional Chinese Medicine Integrated Database)|TIPdb (database of Taiwan indigenous plants)|TPPT (Toxic Plants–PhytoToxins)|UEFS (Natural Products Databse of the UEFS)|UNPD (Universal Natural Products Database)|VietHerb|Watermelon|p-ANAPL

>  <dois>  (72) 
10.1002/9780470744307.gat218|10.1002/biuz.19840140514|10.1002/food.19880321030|10.1016/j.arabjc.2011.01.001|10.1016/j.bmc.2009.08.036|10.1016/j.enzmictec.2018.02.007|10.1016/j.fct.2007.06.004|10.1016/j.freeradbiomed.2004.04.034|10.1016/j.jep.2006.09.006|10.1016/j.jep.2007.10.011|10.1021/acs.jnatprod.8b00952|10.1021/np300204p|10.1021/np300443p|10.1021/np800333r|10.1071/ch9781375|10.1080/14786410802214009|10.1093/pcp/pcn183|10.1128/cdli.11.1.63-69.2004|10.1158/1535-7163.MCT-07-0001|10.1186/s12906-018-2154-4|10.1371/journal.pone.0207278|10.1590/S0103-50532006000200010|10.3390/cancers11111742

>  <synonyms>  (72) 
117-39-5|Sophoretin|Meletin|Quercetine|Xanthaurine|Quercetol|Quertine|Quercitin|2-(3|4-Dihydroxyphenyl)-3|5|7-trihydroxy-4H-chromen-4-one|3|3'|4'|5|7-Pentahydroxyflavone|Cyanidelonon 1522|Flavin meletin|3|5|7|3'|4'-Pentahydroxyflavone|T-Gelb bzw. grun 1|C.I. Natural Yellow 10|Quercetin content|Kvercetin|C.I. 75670|C.I. Natural red 1|Cyanidenolon 1522|2-(3|4-Dihydroxyphenyl)-3|5|7-trihydroxy-4H-1-benzopyran-4-one|Corvitin|Korvitin|Lipoflavon|3'|4'|5|7-Tetrahydroxyflavan-3-ol|C.I. Natural yellow 10 & 13|Flavone| 3|3'|4'|5|7-pentahydroxy-|NSC 9219|CCRIS 1639|4H-1-Benzopyran-4-one| 2-(3|4-dihydroxyphenyl)-3|5|7-trihydroxy-|HSDB 3529|NCI-C60106|3'-hydroxykaempferol|CHEBI:16243|3|5|7-Trihydroxy-2-(3|4-dihydroxyphenyl)-4H-chromen-4-on|AI3-26018|UNII-9IKM0I5T1E|C15H10O7|NSC-9219|EINECS 204-187-1|9IKM0I5T1E|Quercetin (GMP)|BRN 0317313|CI 75670|DTXSID4021218|CHEMBL50|Ci-75670|MFCD00006828|NSC-57655|LDN-0052529|DTXCID001218|Quercetin (constituent of ginkgo)|5-18-05-00494 (Beilstein Handbook Reference)|Kvercetin Czech|Natural Yellow 10|QUERCETIN (IARC)|QUERCETIN IARC|QUERCETIN (USP-RS)|QUERCETIN USP-RS|QUE|BRD9794|Dikvertin|2-(3|4-DIHYDROXYPHENYL)-3|5|7-TRIHYDROXY-4H-BENZOPYRAN-4-ONE|CAS-117-39-5|3'|4'|5|7-tetrahydroxyflavonol|NSC58588|SR-01000076098|MixCom3_000183|Ritacetin|Quer|74893-81-5|4dfu|4mra|Quercetin2H2O|Meletin;Sophoretin|Quercetin Phenolic|KUC104418N|KUC107684N|LIM-5662|LNS-5662|TNP00070|TNP00089|Quercetin1540|CI Natural Red 1|KSC-23-76|Quercetin_sathishkumar|KSC-10-126|Quercetin (Sophoretin)|Spectrum_000124|Tocris-1125|3cf8|QUERCETIN DSC|QUERCETIN MI|BiomolKI_000062|QUERCETIN HSDB|QUERCETIN INCI|Maybridge1_008992|Prestwick0_000507|Spectrum2_000059|Spectrum3_000642|Spectrum4_000807|Spectrum5_001389|Lopac-Q-0125|QUERCETIN VANDF|P0042|C.I. natural yellow 13|Enicostemma Littorale Blume|UPCMLD-DP081|Q 0125|QUERCETIN WHO-DD|NCIOpen2_007628|NCIOpen2_007882|BIDD:PXR0007|Lopac0_000999|SCHEMBL19723|BSPBio_000433|BSPBio_001068|BSPBio_002243|KBioGR_000408|KBioGR_001293|KBioSS_000408|KBioSS_000584|MLS006011766|BIDD:ER0315|DivK1c_000485|SCHEMBL219729|SPECTRUM1500672|T-GELB BZW| GRUN 1|CU-01000012502-3|SPBio_000217|SPBio_002354|BDBM7460|BPBio1_000477|GTPL5346|MEGxp0_000381|SGCUT00001|NIOSH\/LK8760000|UPCMLD-DP081:001|ACon1_000560|HMS501I07|KBio1_000485|KBio2_000408|KBio2_000584|KBio2_002976|KBio2_003152|KBio2_005544|KBio2_005720|KBio3_000775|KBio3_001463|NINDS_000485|Bio1_000369|Bio1_000858|Bio1_001347|Bio2_000374|Bio2_000854|HMS1362F09|HMS1792F09|HMS1923O19|HMS1990F09|HMS3263G19|HMS3267M12|HMS3414J21|HMS3649D04|HMS3656C15|HMS3678J19|to_000078|3|4'|5|5'|7-pentahydroxyflavone|Tox21_202308|Tox21_300285|Tox21_500999|BBL005513|CCG-40054|HB0542|HY-18085G|LMPK12110004|NSC 57655|NSC324608|NSC756660|s2391|STK365650|Quercetin| >=95% (HPLC)| solid|AKOS000511724|Quercetin 1000 microg\/mL in Acetone|CS-3981|DB04216|DS-3416|LP00999|SDCCGSBI-0050972.P003|IDI1_000485|IDI1_002129|SMP1_000252|NCGC00015870-01|NCGC00015870-22|NCGC00015870-36|NCGC00015870-48|NCGC00025016-01|NCGC00168962-01|NCGC00254218-01|NCGC00259857-01|NCGC00261684-01|AC-19596|AC-29756|NCI60_042036|SMR000112559|SY057722|Quercetin| Sophoretin| Meletin| Quercetine|CS-0638666|EU-0100999|LK87600000|NS00001142|Q0025|SW148203-4|Quercetin; 3|3'|4'|5|7-Pentahydroxyflavone|C00389|EN300-199773|K00029|S00057|QUERCETIN (CONSTITUENT OF GINKGO) DSC|WLN: T66 BO EVJ CR CQ DQ & DQ GQ IQ|2-(3|4-Dihydroxyphenyl)-4H-1-benzopyran-4-one|Q409478|Q-200333|BRD-K97399794-001-02-1|BRD-K97399794-001-11-2|BRD-K97399794-335-03-1|Z57176222|2-(3|4-dihydroxyphenyl)-3|5|7-trihydroxy-chromone;hydrate|49643640-FD4C-4B93-BD28-0D7C2021CC52|4H-1-Benzopyran-4-one|2-(3|4-dihydroxyphenyl)-3|5|7-trihydroxy-|zirconium(2+)salt(1:1)|quercitin|quercetin|2-(3|4-DIHYDROXY-PHENYL)-3|5|7-TRIHYDROXY-CHROMEN-4-ONE|FSL0827|meletin

>  <cas>  (72) 
117-39-5|74893-81-5|BRD-K97399794-335-03-1

$$$$

     RDKit          2D

 28 32  0  0  0  0  0  0  0  0999 V2000
   -3.5273    5.5170    0.0000 C   0  0  0  0  0  0  0  0  0  0  0  0
   -2.5542    4.3754    0.0000 C   0  0  0  0  0  0  0  0  0  0  0  0
   -3.0563    2.9619    0.0000 C   0  0  0  0  0  0  0  0  0  0  0  0
   -2.0832    1.8204    0.0000 C   0  0  0  0  0  0  0  0  0  0  0  0
   -2.5852    0.4069    0.0000 C   0  0  0  0  0  0  0  0  0  0  0  0
   -4.0239   -0.0177    0.0000 O   0  0  0  0  0  0  0  0  0  0  0  0
   -4.0646   -1.5172    0.0000 C   0  0  0  0  0  0  0  0  0  0  0  0
   -5.3016   -2.3656    0.0000 O   0  0  0  0  0  0  0  0  0  0  0  0
   -2.6511   -2.0192    0.0000 C   0  0  0  0  0  0  0  0  0  0  0  0
   -2.0784   -3.4056    0.0000 C   0  0  0  0  0  0  0  0  0  0  0  0
   -0.5914   -3.6028    0.0000 C   0  0  0  0  0  0  0  0  0  0  0  0
   -0.3711   -2.3216    0.0000 C   0  0  0  0  0  0  0  0  0  0  0  0
   -0.6765   -1.5822    0.0000 C   0  0  0  0  0  0  0  0  0  0  0  0
   -1.7368   -0.8301    0.0000 C   0  0  0  0  0  0  0  0  0  0  0  0
   -0.2498   -1.0273    0.0000 C   0  0  0  0  0  0  0  0  0  0  0  0
    0.6644    0.1619    0.0000 C   0  0  0  0  0  0  0  0  0  0  0  0
    2.1514   -0.0354    0.0000 C   0  0  0  0  0  0  0  0  0  0  0  0
    2.7241   -1.4217    0.0000 C   0  0  0  0  0  0  0  0  0  0  0  0
    1.8098   -2.6109    0.0000 C   0  0  0  0  0  0  0  0  0  0  0  0
    0.3229   -2.4137    0.0000 C   0  0  0  0  0  0  0  0  0  0  0  0
    2.7985    1.3179    0.0000 C   0  0  0  0  0  0  0  0  0  0  0  0
    4.2736    1.5898    0.0000 C   0  0  0  0  0  0  0  0  0  0  0  0
    5.2467    0.4483    0.0000 C   0  0  0  0  0  0  0  0  0  0  0  0
    6.7218    0.7202    0.0000 C   0  0  0  0  0  0  0  0  0  0  0  0
    7.6949   -0.4213    0.0000 C   0  0  0  0  0  0  0  0  0  0  0  0
    1.7114    2.3515    0.0000 O   0  0  0  0  0  0  0  0  0  0  0  0
    0.3925    1.6370    0.0000 C   0  0  0  0  0  0  0  0  0  0  0  0
   -0.9608    2.2841    0.0000 O   0  0  0  0  0  0  0  0  0  0  0  0
  1  2  1  0
  2  3  1  0
  3  4  1  0
  4  5  2  0
  5  6  1  0
  6  7  1  0
  7  8  2  0
  7  9  1  0
  9 10  2  0
 10 11  1  0
 11 12  1  6
 12 13  1  0
 13 14  1  0
 14 15  1  0
 15 16  1  0
 16 17  2  0
 17 18  1  0
 18 19  1  0
 20 19  1  1
 17 21  1  0
 21 22  2  0
 22 23  1  0
 23 24  1  0
 24 25  1  0
 21 26  1  0
 26 27  1  0
 27 28  2  0
 14  5  1  6
 20 15  1  0
 14  9  1  0
 27 16  1  0
 20 11  1  0
M  END
>  <identifier>  (73) 
CNP0253547.2

>  <canonical_smiles>  (73) 
CCC/C=C1\OC(=O)C2=C[C@H]3CC[C@]21C1C2=C(CC[C@H]13)/C(=C\CCC)OC2=O

>  <standard_inchi>  (73) 
InChI=1S/C24H28O4/c1-3-5-7-18-16-10-9-15-14-11-12-24(21(15)20(16)23(26)27-18)17(13-14)22(25)28-19(24)8-6-4-2/h7-8,13-15,21H,3-6,9-12H2,1-2H3/b18-7+,19-8-/t14-,15+,21?,24+/m1/s1

>  <standard_inchi_key>  (73) 
UBBRXVRQZJSDAK-FGUXGJARSA-N

>  <name>  (73) 
(Z)-6,6',7,3'Alpha-Diligustilide

>  <iupac_name>  (73) 
(1~{S},6~{E},10~{S},11~{S},16~{Z})-6,16-di(butylidene)-5,15-dioxapentacyclo[9.5.2.0^{1,13}.0^{2,10}.0^{3,7}]octadeca-3(7),12-diene-4,14-dione

>  <annotation_level>  (73) 
5

>  <total_atom_count>  (73) 
56

>  <heavy_atom_count>  (73) 
28

>  <molecular_weight>  (73) 
380.48

>  <exact_molecular_weight>  (73) 
380.19876

>  <molecular_formula>  (73) 
C24H28O4

>  <alogp>  (73) 
5.13

>  <topological_polar_surface_area>  (73) 
52.60

>  <rotatable_bond_count>  (73) 
4

>  <hydrogen_bond_acceptors>  (73) 
4

>  <hydrogen_bond_donors>  (73) 
0

>  <hydrogen_bond_acceptors_lipinski>  (73) 
4

>  <hydrogen_bond_donors_lipinski>  (73) 
0

>  <lipinski_rule_of_five_violations>  (73) 
1

>  <aromatic_rings_count>  (73) 
0

>  <qed_drug_likeliness>  (73) 
0.63

>  <formal_charge>  (73) 
0

>  <fractioncsp3>  (73) 
0.58

>  <number_of_minimal_rings>  (73) 
6

>  <van_der_walls_volume>  (73) 
356.58

>  <contains_sugar>  (73) 
False

>  <contains_ring_sugars>  (73) 
False

>  <contains_linear_sugars>  (73) 
False

>  <murcko_framework>  (73) 
O1CC2=C(C1)C3C(CC2)C4C=C5COCC53CC4

>  <np_likeness>  (73) 
3.57

>  <chemical_class>  (73) 
Dihydrofurans

>  <chemical_sub_class>  (73) 
Furanones

>  <chemical_super_class>  (73) 
Organoheterocyclic compounds

>  <direct_parent_classification>  (73) 
Butenolides

>  <np_classifier_pathway>  (73) 
Polyketides

>  <np_classifier_superclass>  (73) 
Cyclic polyketides

>  <np_classifier_class>  (73) 
Phthalide derivatives

>  <np_classifier_is_glycoside>  (73) 
False

>  <organisms>  (73) 
Ligusticum porteri

>  <collections>  (73) 
BIOFACQUIM|Latin America dataset

>  <dois>  (73) 
10.1021/np100447a

>  <synonyms>  (73) 
CHEMBL1765388|(Z)-6 6' 7 3'a-diligustilide

>  <cas>  (73) 
nan

$$$$

     RDKit          2D

 14 15  0  0  0  0  0  0  0  0999 V2000
   -5.7711   -0.0477    0.0000 C   0  0  0  0  0  0  0  0  0  0  0  0
   -4.4608   -0.7779    0.0000 C   0  0  0  0  0  0  0  0  0  0  0  0
   -3.1733   -0.0082    0.0000 C   0  0  0  0  0  0  0  0  0  0  0  0
   -1.8630   -0.7383    0.0000 C   0  0  0  0  0  0  0  0  0  0  0  0
   -0.5755    0.0314    0.0000 C   0  0  0  0  0  0  0  0  0  0  0  0
   -0.4415    1.5254    0.0000 O   0  0  0  0  0  0  0  0  0  0  0  0
    1.0208    1.8596    0.0000 C   0  0  0  0  0  0  0  0  0  0  0  0
    1.6100    3.2390    0.0000 O   0  0  0  0  0  0  0  0  0  0  0  0
    1.7905    0.5721    0.0000 C   0  0  0  0  0  0  0  0  0  0  0  0
    0.8039   -0.5577    0.0000 C   0  0  0  0  0  0  0  0  0  0  0  0
    1.2891   -1.9771    0.0000 C   0  0  0  0  0  0  0  0  0  0  0  0
    2.7609   -2.2666    0.0000 C   0  0  0  0  0  0  0  0  0  0  0  0
    3.7475   -1.1367    0.0000 C   0  0  0  0  0  0  0  0  0  0  0  0
    3.2623    0.2826    0.0000 C   0  0  0  0  0  0  0  0  0  0  0  0
  1  2  1  0
  2  3  1  0
  3  4  1  0
  4  5  2  3
  5  6  1  0
  6  7  1  0
  7  8  2  0
  7  9  1  0
  9 10  2  0
 10 11  1  0
 11 12  1  0
 12 13  1  0
 13 14  2  0
 10  5  1  0
 14  9  1  0
M  END
>  <identifier>  (74) 
CNP0257129.0

>  <canonical_smiles>  (74) 
CCCC=C1OC(=O)C2=C1CCC=C2

>  <standard_inchi>  (74) 
InChI=1S/C12H14O2/c1-2-3-8-11-9-6-4-5-7-10(9)12(13)14-11/h5,7-8H,2-4,6H2,1H3

>  <standard_inchi_key>  (74) 
IQVQXVFMNOFTMU-UHFFFAOYSA-N

>  <name>  (74) 
3-butylidene-1,3,4,5-tetrahydro-2-benzofuran-1-one

>  <iupac_name>  (74) 
3-butylidene-4,5-dihydroisobenzofuran-1-one

>  <annotation_level>  (74) 
5

>  <total_atom_count>  (74) 
28

>  <heavy_atom_count>  (74) 
14

>  <molecular_weight>  (74) 
190.24

>  <exact_molecular_weight>  (74) 
190.09938

>  <molecular_formula>  (74) 
C12H14O2

>  <alogp>  (74) 
2.87

>  <topological_polar_surface_area>  (74) 
26.30

>  <rotatable_bond_count>  (74) 
2

>  <hydrogen_bond_acceptors>  (74) 
2

>  <hydrogen_bond_donors>  (74) 
0

>  <hydrogen_bond_acceptors_lipinski>  (74) 
2

>  <hydrogen_bond_donors_lipinski>  (74) 
0

>  <lipinski_rule_of_five_violations>  (74) 
0

>  <aromatic_rings_count>  (74) 
0

>  <qed_drug_likeliness>  (74) 
0.63

>  <formal_charge>  (74) 
0

>  <fractioncsp3>  (74) 
0.42

>  <number_of_minimal_rings>  (74) 
2

>  <van_der_walls_volume>  (74) 
184.69

>  <contains_sugar>  (74) 
False

>  <contains_ring_sugars>  (74) 
False

>  <contains_linear_sugars>  (74) 
False

>  <murcko_framework>  (74) 
O1CC=2C=CCCC2C1

>  <np_likeness>  (74) 
3.20

>  <chemical_class>  (74) 
Dihydrofurans

>  <chemical_sub_class>  (74) 
Furanones

>  <chemical_super_class>  (74) 
Organoheterocyclic compounds

>  <direct_parent_classification>  (74) 
Butenolides

>  <np_classifier_pathway>  (74) 
Polyketides

>  <np_classifier_superclass>  (74) 
Cyclic polyketides

>  <np_classifier_class>  (74) 
Phthalide derivatives

>  <np_classifier_is_glycoside>  (74) 
False

>  <organisms>  (74) 
Actaea dahurica|Actaea heracleifolia|Actaea simplex|Akebia quinata|Akebia trifoliata|Angelica acutiloba|Angelica acutiloba (Hokkado)|Angelica acutiloba (Toyama)|Angelica gigas|Angelica japonica|Angelica sinensis|Apium graveolens|Cerbera manghas|Cimicifuga foetida|Cnidium officinale|Conioselinum vaginatum|Levisticum officinale|Ligusticopsis brachyloba|Ligusticum brachylobum|Ligusticum chuanxiong|Ligusticum chuanxiong HORT.|Ligusticum jeholense|Ligusticum porteri|Ligusticum sinense|Ligusticum tenuissimum|Pinellia ternata|Poria cocos|Umbelliferae

>  <collections>  (74) 
Australian natural products|BIOFACQUIM|CMAUP (cCollective molecular activities of useful plants)|ChEBI NPs|FooDB|HIT (Herbal Ingredients Targets)|InflamNat|KNApSaCK|Latin America dataset|NPASS|NPCARE|NPEdia|Phyto4Health|Super Natural II|TCMDB-Taiwan (Traditional Chinese Medicine database)|TCMID (Traditional Chinese Medicine Integrated Database)|UNPD (Universal Natural Products Database)|VietHerb|ZINC NP

>  <dois>  (74) 
10.1021/np050301s|10.1021/np100447a|10.1038/aps.2010.71

>  <synonyms>  (74) 
KBio2_002182|Spectrum_001702|SpecPlus_000585|Spectrum4_001816|KBioGR_002456|KBioSS_002182|DivK1c_006681|SCHEMBL4087027|KBio1_001625|KBio2_004750|KBio2_007318|DTXSID40863398|AKOS028108679|(Z)-ligustilide|Ligustilide|Umbelliferae

>  <cas>  (74) 
nan

$$$$

     RDKit          2D

 37 39  0  0  0  0  0  0  0  0999 V2000
    2.3681   -0.7359    0.0000 O   0  0  0  0  0  0  0  0  0  0  0  0
    3.4148    0.3386    0.0000 C   0  0  0  0  0  0  0  0  0  0  0  0
    4.8686   -0.0306    0.0000 C   0  0  0  0  0  0  0  0  0  0  0  0
    5.2759   -1.4742    0.0000 C   0  0  0  0  0  0  0  0  0  0  0  0
    6.7297   -1.8434    0.0000 C   0  0  0  0  0  0  0  0  0  0  0  0
    7.1370   -3.2870    0.0000 C   0  0  0  0  0  0  0  0  0  0  0  0
    8.5909   -3.6562    0.0000 C   0  0  0  0  0  0  0  0  0  0  0  0
    9.6375   -2.5817    0.0000 C   0  0  0  0  0  0  0  0  0  0  0  0
   11.0913   -2.9508    0.0000 O   0  0  0  0  0  0  0  0  0  0  0  0
    9.2302   -1.1380    0.0000 C   0  0  0  0  0  0  0  0  0  0  0  0
   10.2769   -0.0635    0.0000 O   0  0  0  0  0  0  0  0  0  0  0  0
    7.7764   -0.7689    0.0000 C   0  0  0  0  0  0  0  0  0  0  0  0
    3.0075    1.7822    0.0000 O   0  0  0  0  0  0  0  0  0  0  0  0
    1.5537    2.1514    0.0000 C   0  0  0  0  0  0  0  0  0  0  0  0
    1.1464    3.5951    0.0000 C   0  0  0  0  0  0  0  0  0  0  0  0
   -0.3074    3.9642    0.0000 C   0  0  0  0  0  0  0  0  0  0  0  0
    0.3086    5.3319    0.0000 O   0  0  0  0  0  0  0  0  0  0  0  0
   -1.5474    4.8083    0.0000 C   0  0  0  0  0  0  0  0  0  0  0  0
   -2.8984    4.1566    0.0000 O   0  0  0  0  0  0  0  0  0  0  0  0
   -1.4363    6.3042    0.0000 O   0  0  0  0  0  0  0  0  0  0  0  0
   -1.3541    2.8897    0.0000 C   0  0  0  0  0  0  0  0  0  0  0  0
   -0.9468    1.4460    0.0000 C   0  0  0  0  0  0  0  0  0  0  0  0
   -1.9935    0.3715    0.0000 O   0  0  0  0  0  0  0  0  0  0  0  0
   -3.4473    0.7407    0.0000 C   0  0  0  0  0  0  0  0  0  0  0  0
   -3.8546    2.1843    0.0000 O   0  0  0  0  0  0  0  0  0  0  0  0
   -4.4939   -0.3338    0.0000 C   0  0  0  0  0  0  0  0  0  0  0  0
   -5.9478    0.0353    0.0000 C   0  0  0  0  0  0  0  0  0  0  0  0
   -6.9944   -1.0392    0.0000 C   0  0  0  0  0  0  0  0  0  0  0  0
   -8.4483   -0.6701    0.0000 C   0  0  0  0  0  0  0  0  0  0  0  0
   -9.4949   -1.7446    0.0000 C   0  0  0  0  0  0  0  0  0  0  0  0
   -9.0877   -3.1882    0.0000 C   0  0  0  0  0  0  0  0  0  0  0  0
  -10.1343   -4.2627    0.0000 O   0  0  0  0  0  0  0  0  0  0  0  0
   -7.6338   -3.5574    0.0000 C   0  0  0  0  0  0  0  0  0  0  0  0
   -7.2266   -5.0010    0.0000 O   0  0  0  0  0  0  0  0  0  0  0  0
   -6.5872   -2.4829    0.0000 C   0  0  0  0  0  0  0  0  0  0  0  0
    0.5070    1.0769    0.0000 C   0  0  0  0  0  0  0  0  0  0  0  0
    0.9143   -0.3668    0.0000 O   0  0  0  0  0  0  0  0  0  0  0  0
  1  2  2  0
  2  3  1  0
  3  4  2  0
  4  5  1  0
  5  6  2  0
  6  7  1  0
  7  8  2  0
  8  9  1  0
  8 10  1  0
 10 11  1  0
 10 12  2  0
  2 13  1  0
 14 13  1  1
 14 15  1  0
 15 16  1  0
 16 17  1  0
 16 18  1  0
 18 19  2  0
 18 20  1  0
 16 21  1  0
 21 22  1  0
 22 23  1  6
 23 24  1  0
 24 25  2  0
 24 26  1  0
 26 27  2  0
 27 28  1  0
 28 29  2  0
 29 30  1  0
 30 31  2  0
 31 32  1  0
 31 33  1  0
 33 34  1  0
 33 35  2  0
 22 36  1  0
 36 37  1  0
 12  5  1  0
 36 14  1  0
 35 28  1  0
M  END
>  <identifier>  (75) 
CNP0225644.1

>  <canonical_smiles>  (75) 
O=C(/C=C/C1=CC=C(O)C(O)=C1)O[C@@H]1CC(O)(C(=O)O)C[C@@H](OC(=O)/C=C/C2=CC=C(O)C(O)=C2)C1O

>  <standard_inchi>  (75) 
InChI=1S/C25H24O12/c26-15-5-1-13(9-17(15)28)3-7-21(30)36-19-11-25(35,24(33)34)12-20(23(19)32)37-22(31)8-4-14-2-6-16(27)18(29)10-14/h1-10,19-20,23,26-29,32,35H,11-12H2,(H,33,34)/b7-3+,8-4+/t19-,20-,23?,25?/m1/s1

>  <standard_inchi_key>  (75) 
KRZBCHWVBQOTNZ-RDJMKVHDSA-N

>  <name>  (75) 
Isochlorogenic acid A

>  <iupac_name>  (75) 
trans-(3~{R},5~{R})-3,5-bis[[(~{E})-3-(3,4-dihydroxyphenyl)prop-2-enoyl]oxy]-1,4-dihydroxy-cyclohexanecarboxylic acid

>  <annotation_level>  (75) 
5

>  <total_atom_count>  (75) 
61

>  <heavy_atom_count>  (75) 
37

>  <molecular_weight>  (75) 
516.46

>  <exact_molecular_weight>  (75) 
516.12678

>  <molecular_formula>  (75) 
C25H24O12

>  <alogp>  (75) 
1.03

>  <topological_polar_surface_area>  (75) 
211.28

>  <rotatable_bond_count>  (75) 
7

>  <hydrogen_bond_acceptors>  (75) 
11

>  <hydrogen_bond_donors>  (75) 
7

>  <hydrogen_bond_acceptors_lipinski>  (75) 
11

>  <hydrogen_bond_donors_lipinski>  (75) 
7

>  <lipinski_rule_of_five_violations>  (75) 
3

>  <aromatic_rings_count>  (75) 
2

>  <qed_drug_likeliness>  (75) 
0.16

>  <formal_charge>  (75) 
0

>  <fractioncsp3>  (75) 
0.24

>  <number_of_minimal_rings>  (75) 
3

>  <van_der_walls_volume>  (75) 
433.70

>  <contains_sugar>  (75) 
False

>  <contains_ring_sugars>  (75) 
False

>  <contains_linear_sugars>  (75) 
False

>  <murcko_framework>  (75) 
O(CC=Cc1ccccc1)C2CCCC(OCC=Cc3ccccc3)C2

>  <np_likeness>  (75) 
1.35

>  <chemical_class>  (75) 
Organooxygen compounds

>  <chemical_sub_class>  (75) 
Alcohols and polyols

>  <chemical_super_class>  (75) 
Organic oxygen compounds

>  <direct_parent_classification>  (75) 
Quinic acids and derivatives

>  <np_classifier_pathway>  (75) 
Shikimates and Phenylpropanoids

>  <np_classifier_superclass>  (75) 
Phenylpropanoids (C6-C3)

>  <np_classifier_class>  (75) 
Cinnamic acids and derivatives

>  <np_classifier_is_glycoside>  (75) 
False

>  <organisms>  (75) 
Akebia quinata|Akebia trifoliata|Angelica pubescens|Aralia continentalis|Arctium lappa|Artemisia annua L.|Artemisia apiacea|Artemisia argyi|Artemisia capillaris|Artemisia iwayomogi|Artemisia montana|Artemisia princeps|Aster tataricus|Brickellia cavanillesii|Centipeda minima|Chrysanthemum indicum|Chrysanthemum x morifolium|Cichorium glandulosum|Cichorium intybus|Cuscuta australis|Cuscuta chinensis|Cydonia oblonga|Daucus carota|Dipsacus asper|Dipsacus asperoides|Erigeron breviscapus|Erycibe obtusifolia|Erycibe schmidtii|Eupatorium rebaudianum|Gardenia jasminoides|Herba cichorii|Imperata cylindrica var. major|Ipomoea cairica|Ipomoea pes-caprae|Lonicera confusa|Lonicera fulvotomentosa|Lonicera hypoglauca|Lonicera japonica|Lonicera macranthoides|Matricaria matricarioides|Morus alba|Pyrrosia lingua|Pyrrosia petiolosa|Pyrrosia sheareri|Pyrrosia tricuspis|Saussurea involucrata|Strychnos axillaris|Taraxacum borealisinense|Taraxacum coreanum|Taraxacum mongolicum|Taraxacum officinale|Taraxacum platycarpum|Tithonia diversifolia|Tussilago farfara|Vitex negundo|Xanthium sibiricum|Xanthium strumarium

>  <collections>  (75) 
Australian natural products|BIOFACQUIM|CMAUP (cCollective molecular activities of useful plants)|FooDB|Latin America dataset|NPASS|Phyto4Health|VietHerb

>  <dois>  (75) 
10.1007/s10600-005-0178-8|10.1016/j.bse.2012.06.019|10.1016/j.phytochem.2007.12.002|10.1021/np0500631|10.1021/np300204p|10.1021/np4005773|10.1556/achrom.27.2015.3.10

>  <synonyms>  (75) 
3|5-Dicaffeoylquinic acid|2450-53-5|89919-62-0|3|5-DCQA|(E|E)-3|5-Di-O-caffeoylquinic acid|Quinic acid 3|5-di-O-caffeate|(1S|3R|4S|5R)-3|5-Bis(((E)-3-(3|4-dihydroxyphenyl)acryloyl)oxy)-1|4-dihydroxycyclohexanecarboxylic acid|(3R|5R)-3|5-bis(E)-3-(3|4-dihydroxyphenyl)prop-2-enoyloxy-1|4-dihydroxycyclohexane-1-carboxylic acid|879305-14-3|CJ 4-16-4|CJ-4-16-4|CHEMBL249447|ND94C5E75K|3|5-di-O-caffeoyl quinic acid|CHEMBL4289566|CHEBI:65751|(1S|3R|4S|5R)-1|3|4|5-tetrahydroxy-1-carboxycyclohexane3|5-di-3-(3|4-dihydroxyphenyl)propenoate|Isochlorogenic-acid-A|Methylhydrogenphthalate|3|5-dicaffeoylquinate|3|5-H56:H75dicaffeoyl-epi-quinic acid|UNII-ND94C5E75K|3|5-Di-o-caffeoylquinic acid\/Isochlorogenic acid A|Rel-3|5-Dicaffeoylquinic Acid|CHEMBL4466054|SCHEMBL13567304|SCHEMBL20339739|ACon1_002290|GTPL12548|DTXSID00424282|HY-N0056|HY-N9895|BDBM50362839|BDBM50466107|MFCD00951290|s9282|AKOS015903388|AKOS016007890|AKOS032948323|CCG-269821|CS-3768|NCGC00169984-01|NCGC00390251-01|(3R|5R)-3|5-bis(((2E)-3-(3|4-dihydroxyphenyl)-1-oxo-2-propen-1-yl))-1|4-dihydroxy-cyclohexanecarboxylic acid|1ST40155|BS-42212|PD197614|3|5-DI-O-(E)-CAFFEOYLQUINIC ACID|CS-0204164|A877898|Q-100315|3|5-Di-caffeoylquinic acid| >=95% (LC\/MS-ELSD)|Q27134233|(1.ALPHA.|3R|4.ALPHA.|5R)-3|5-BIS(((2E)-3-(3|4-DIHYDROXYPHENYL)-1-OXO-2-PROPEN-1-YL)OXY)-1|4-DIHYDROXYCYCLOHEXANECARBOXYLIC ACID|(1|A|3R|4|(1S|3R|4S|5R)-3|5-BIS(((E)-3-(3|4-DIHYDROXYPHENYL)ACRYLOYL)OXY)-1|5-DIHYDROXYCYCLOHEXANE-1-CARBOXYLIC ACID|CYCLOHEXANECARBOXYLIC ACID| 1|4-DIHYDROXY-3|5-BIS(((2E)-3-(4-HYDROXYPHENYL)-1-OXO-2-PROPEN-1-YL)OXY)-| (1.ALPHA.|3R|4.ALPHA.|5R)-|CYCLOHEXANECARBOXYLIC ACID| 3|5-BIS(((2E)-3-(3|4-DIHYDROXYPHENYL)-1-OXO-2-PROPEN-1-YL)OXY)-1|4-DIHYDROXY-| (1.ALPHA.|3R|4.ALPHA.|5R)-|CYCLOHEXANECARBOXYLIC ACID| 3|5-BIS((3-(3|4-DIHYDROXYPHENYL)-1-OXO-2-PROPENYL)OXY)-1|4-DIHYDROXY-| (1R-(1.ALPHA.|3.ALPHA.(E)|4.ALPHA.|5.BETA.(E)))-|isochlorogenic acid A

>  <cas>  (75) 
2450-53-5|89919-62-0|879305-14-3

$$$$

     RDKit          2D

 38 42  0  0  0  0  0  0  0  0999 V2000
   -5.7615    5.0386    0.0000 C   0  0  0  0  0  0  0  0  0  0  0  0
   -5.1140    3.6855    0.0000 O   0  0  0  0  0  0  0  0  0  0  0  0
   -5.9620    2.4482    0.0000 C   0  0  0  0  0  0  0  0  0  0  0  0
   -7.4614    2.4070    0.0000 O   0  0  0  0  0  0  0  0  0  0  0  0
   -7.8856    0.9682    0.0000 C   0  0  0  0  0  0  0  0  0  0  0  0
   -9.2989    0.4657    0.0000 O   0  0  0  0  0  0  0  0  0  0  0  0
   -6.6483    0.1202    0.0000 C   0  0  0  0  0  0  0  0  0  0  0  0
   -5.4594    1.0349    0.0000 C   0  0  0  0  0  0  0  0  0  0  0  0
   -4.0206    0.6108    0.0000 C   0  0  0  0  0  0  0  0  0  0  0  0
   -3.6686   -0.8473    0.0000 C   0  0  0  0  0  0  0  0  0  0  0  0
   -1.8427   -1.8547    0.0000 C   0  0  0  0  0  0  0  0  0  0  0  0
   -2.0619    0.2191    0.0000 C   0  0  0  0  0  0  0  0  0  0  0  0
   -0.7327   -1.1780    0.0000 C   0  0  0  0  0  0  0  0  0  0  0  0
   -0.0652    0.1653    0.0000 C   0  0  0  0  0  0  0  0  0  0  0  0
    1.4319    0.2588    0.0000 C   0  0  0  0  0  0  0  0  0  0  0  0
    2.0995    1.6021    0.0000 O   0  0  0  0  0  0  0  0  0  0  0  0
    3.5965    1.6956    0.0000 C   0  0  0  0  0  0  0  0  0  0  0  0
    4.4261    0.4458    0.0000 O   0  0  0  0  0  0  0  0  0  0  0  0
    5.9232    0.5393    0.0000 C   0  0  0  0  0  0  0  0  0  0  0  0
    6.7527   -0.7104    0.0000 C   0  0  0  0  0  0  0  0  0  0  0  0
    6.0851   -2.0537    0.0000 O   0  0  0  0  0  0  0  0  0  0  0  0
    6.5907    1.8826    0.0000 C   0  0  0  0  0  0  0  0  0  0  0  0
    8.0878    1.9761    0.0000 O   0  0  0  0  0  0  0  0  0  0  0  0
    5.7612    3.1324    0.0000 C   0  0  0  0  0  0  0  0  0  0  0  0
    6.4287    4.4756    0.0000 O   0  0  0  0  0  0  0  0  0  0  0  0
    4.2641    3.0388    0.0000 C   0  0  0  0  0  0  0  0  0  0  0  0
    3.4346    4.2886    0.0000 O   0  0  0  0  0  0  0  0  0  0  0  0
    2.2614   -0.9910    0.0000 C   0  0  0  0  0  0  0  0  0  0  0  0
    1.5939   -2.3342    0.0000 C   0  0  0  0  0  0  0  0  0  0  0  0
    2.1454   -3.7291    0.0000 C   0  0  0  0  0  0  0  0  0  0  0  0
    3.5981   -4.1028    0.0000 O   0  0  0  0  0  0  0  0  0  0  0  0
    0.9892   -4.6848    0.0000 O   0  0  0  0  0  0  0  0  0  0  0  0
   -0.2769   -3.8805    0.0000 C   0  0  0  0  0  0  0  0  0  0  0  0
    0.0968   -2.4277    0.0000 C   0  0  0  0  0  0  0  0  0  0  0  0
   -0.9579   -3.1878    0.0000 C   0  0  0  0  0  0  0  0  0  0  0  0
   -1.7563   -3.2377    0.0000 C   0  0  0  0  0  0  0  0  0  0  0  0
   -2.1987   -2.5711    0.0000 C   0  0  0  0  0  0  0  0  0  0  0  0
   -4.3945   -2.7083    0.0000 C   0  0  0  0  0  0  0  0  0  0  0  0
  1  2  1  0
  2  3  1  0
  3  4  1  0
  4  5  1  0
  5  6  2  0
  5  7  1  0
  7  8  2  0
  8  9  1  0
  9 10  1  0
 10 11  1  0
 11 12  1  1
 11 13  1  0
 13 14  1  0
 14 15  1  0
 15 16  1  6
 17 16  1  1
 17 18  1  0
 18 19  1  0
 19 20  1  1
 20 21  1  0
 19 22  1  0
 22 23  1  6
 22 24  1  0
 24 25  1  1
 24 26  1  0
 26 27  1  6
 15 28  1  0
 28 29  2  0
 29 30  1  0
 30 31  2  0
 30 32  1  0
 32 33  1  0
 34 33  1  1
 34 35  1  0
 35 36  1  0
 36 37  1  0
 37 38  1  1
  8  3  1  0
 37 11  1  0
 34 13  1  0
 26 17  1  0
 34 29  1  0
M  END
>  <identifier>  (76) 
CNP0089454.1

>  <canonical_smiles>  (76) 
COC1OC(=O)C=C1CC[C@]1(C)C2C[C@H](O[C@@H]3O[C@H](CO)[C@@H](O)[C@H](O)[C@H]3O)C=C3C(=O)OC[C@]32CC[C@H]1C

>  <standard_inchi>  (76) 
InChI=1S/C27H38O11/c1-13-4-7-27-12-35-23(33)16(27)9-15(36-25-22(32)21(31)20(30)17(11-28)37-25)10-18(27)26(13,2)6-5-14-8-19(29)38-24(14)34-3/h8-9,13,15,17-18,20-22,24-25,28,30-32H,4-7,10-12H2,1-3H3/t13-,15-,17-,18?,20-,21+,22-,24?,25-,26+,27-/m1/s1

>  <standard_inchi_key>  (76) 
JMHINZPNTWTGKC-ZREMQXPESA-N

>  <name>  (76) 
nan

>  <iupac_name>  (76) 
(5~{S},7~{S},8~{R},10~{a}~{S})-7-[2-(2-methoxy-5-oxo-2~{H}-furan-3-yl)ethyl]-7,8-dimethyl-5-[(2~{R},3~{R},4~{S},5~{S},6~{R})-3,4,5-trihydroxy-6-(hydroxymethyl)tetrahydropyran-2-yl]oxy-5,6,6~{a},8,9,10-hexahydro-1~{H}-benzo[d]isobenzofuran-3-one

>  <annotation_level>  (76) 
5

>  <total_atom_count>  (76) 
76

>  <heavy_atom_count>  (76) 
38

>  <molecular_weight>  (76) 
538.59

>  <exact_molecular_weight>  (76) 
538.24141

>  <molecular_formula>  (76) 
C27H38O11

>  <alogp>  (76) 
0.33

>  <topological_polar_surface_area>  (76) 
161.21

>  <rotatable_bond_count>  (76) 
7

>  <hydrogen_bond_acceptors>  (76) 
11

>  <hydrogen_bond_donors>  (76) 
4

>  <hydrogen_bond_acceptors_lipinski>  (76) 
11

>  <hydrogen_bond_donors_lipinski>  (76) 
4

>  <lipinski_rule_of_five_violations>  (76) 
2

>  <aromatic_rings_count>  (76) 
0

>  <qed_drug_likeliness>  (76) 
0.33

>  <formal_charge>  (76) 
0

>  <fractioncsp3>  (76) 
0.78

>  <number_of_minimal_rings>  (76) 
5

>  <van_der_walls_volume>  (76) 
475.37

>  <contains_sugar>  (76) 
True

>  <contains_ring_sugars>  (76) 
True

>  <contains_linear_sugars>  (76) 
False

>  <murcko_framework>  (76) 
O1CC=C(C1)CCC2CCCC34C(=CC(OC5OCCCC5)CC23)COC4

>  <np_likeness>  (76) 
3.34

>  <chemical_class>  (76) 
Lactones

>  <chemical_sub_class>  (76) 
Gamma butyrolactones

>  <chemical_super_class>  (76) 
Organoheterocyclic compounds

>  <direct_parent_classification>  (76) 
Gamma butyrolactones

>  <np_classifier_pathway>  (76) 
Terpenoids

>  <np_classifier_superclass>  (76) 
Diterpenoids

>  <np_classifier_class>  (76) 
Colensane and Clerodane diterpenoids

>  <np_classifier_is_glycoside>  (76) 
True

>  <organisms>  (76) 
Salvia circinata

>  <collections>  (76) 
BIOFACQUIM|Latin America dataset

>  <dois>  (76) 
10.1021/acs.jnatprod.7b00155

>  <synonyms>  (76) 
(2S 5S 8R 9R 10R)-2-(O-b-D-glucopyranosyl)neocleroda-14-methoxy-3 13-diene-15 14;18 19-diolide

>  <cas>  (76) 
nan

$$$$

     RDKit          2D

 14 15  0  0  0  0  0  0  0  0999 V2000
   -5.7711    0.0477    0.0000 C   0  0  0  0  0  0  0  0  0  0  0  0
   -4.4608    0.7779    0.0000 C   0  0  0  0  0  0  0  0  0  0  0  0
   -3.1733    0.0082    0.0000 C   0  0  0  0  0  0  0  0  0  0  0  0
   -1.8630    0.7383    0.0000 C   0  0  0  0  0  0  0  0  0  0  0  0
   -0.5755   -0.0314    0.0000 C   0  0  0  0  0  0  0  0  0  0  0  0
   -0.4415   -1.5254    0.0000 O   0  0  0  0  0  0  0  0  0  0  0  0
    1.0208   -1.8596    0.0000 C   0  0  0  0  0  0  0  0  0  0  0  0
    1.6100   -3.2390    0.0000 O   0  0  0  0  0  0  0  0  0  0  0  0
    1.7905   -0.5721    0.0000 C   0  0  0  0  0  0  0  0  0  0  0  0
    3.2623   -0.2826    0.0000 C   0  0  0  0  0  0  0  0  0  0  0  0
    3.7475    1.1367    0.0000 C   0  0  0  0  0  0  0  0  0  0  0  0
    2.7609    2.2666    0.0000 C   0  0  0  0  0  0  0  0  0  0  0  0
    1.2891    1.9771    0.0000 C   0  0  0  0  0  0  0  0  0  0  0  0
    0.8039    0.5577    0.0000 C   0  0  0  0  0  0  0  0  0  0  0  0
  1  2  1  0
  2  3  1  0
  3  4  1  0
  4  5  2  3
  5  6  1  0
  6  7  1  0
  7  8  2  0
  7  9  1  0
  9 10  2  0
 10 11  1  0
 11 12  2  0
 12 13  1  0
 13 14  2  0
 14  5  1  0
 14  9  1  0
M  END
>  <identifier>  (77) 
CNP0279341.0

>  <canonical_smiles>  (77) 
CCCC=C1OC(=O)C2=CC=CC=C12

>  <standard_inchi>  (77) 
InChI=1S/C12H12O2/c1-2-3-8-11-9-6-4-5-7-10(9)12(13)14-11/h4-8H,2-3H2,1H3

>  <standard_inchi_key>  (77) 
WMBOCUXXNSOQHM-UHFFFAOYSA-N

>  <name>  (77) 
3-Butylidenephthalide

>  <iupac_name>  (77) 
3-butylideneisobenzofuran-1-one

>  <annotation_level>  (77) 
5

>  <total_atom_count>  (77) 
26

>  <heavy_atom_count>  (77) 
14

>  <molecular_weight>  (77) 
188.23

>  <exact_molecular_weight>  (77) 
188.08373

>  <molecular_formula>  (77) 
C12H12O2

>  <alogp>  (77) 
3.00

>  <topological_polar_surface_area>  (77) 
26.30

>  <rotatable_bond_count>  (77) 
2

>  <hydrogen_bond_acceptors>  (77) 
2

>  <hydrogen_bond_donors>  (77) 
0

>  <hydrogen_bond_acceptors_lipinski>  (77) 
2

>  <hydrogen_bond_donors_lipinski>  (77) 
0

>  <lipinski_rule_of_five_violations>  (77) 
0

>  <aromatic_rings_count>  (77) 
1

>  <qed_drug_likeliness>  (77) 
0.67

>  <formal_charge>  (77) 
0

>  <fractioncsp3>  (77) 
0.25

>  <number_of_minimal_rings>  (77) 
2

>  <van_der_walls_volume>  (77) 
179.10

>  <contains_sugar>  (77) 
False

>  <contains_ring_sugars>  (77) 
False

>  <contains_linear_sugars>  (77) 
False

>  <murcko_framework>  (77) 
O1Cc2ccccc2C1

>  <np_likeness>  (77) 
1.47

>  <chemical_class>  (77) 
Isocoumarans

>  <chemical_sub_class>  (77) 
Isobenzofuranones

>  <chemical_super_class>  (77) 
Organoheterocyclic compounds

>  <direct_parent_classification>  (77) 
Isobenzofuranones

>  <np_classifier_pathway>  (77) 
Polyketides

>  <np_classifier_superclass>  (77) 
Cyclic polyketides

>  <np_classifier_class>  (77) 
Phthalide derivatives

>  <np_classifier_is_glycoside>  (77) 
False

>  <organisms>  (77) 
Angelica acutiloba|Angelica acutiloba (Hokkado)|Angelica acutiloba (Toyama)|Angelica gigas|Angelica sinensis|Cnidium officinale|Levisticum officinale|Ligusticum chuanxiong|Ligusticum chuanxiong HORT.|Ligusticum jeholense|Ligusticum porteri|Ligusticum sinense|Ligusticum tenuissimum|Lonicera japonica|Opuntia microdasys|Poria cocos|Radix chuanxiong|Rhizoma chuanxiong

>  <collections>  (77) 
Australian natural products|BIOFACQUIM|CMAUP (cCollective molecular activities of useful plants)|ChEBI NPs|FooDB|KNApSaCK|Latin America dataset|NPASS|NPCARE|Phyto4Health|Super Natural II|TCMDB-Taiwan (Traditional Chinese Medicine database)|TCMID (Traditional Chinese Medicine Integrated Database)|UNPD (Universal Natural Products Database)|VietHerb|ZINC NP

>  <dois>  (77) 
10.1021/np050301s|10.1021/np100447a|10.3923/pjbs.2007.2485.2489

>  <synonyms>  (77) 
Butylidenephthalide|1(3H)-ISOBENZOFURANONE| 3-BUTYLIDENE-|(Z)-3-Butylidenephthalide|cis-Butylidenephthalide;(Z)-Butylidenephthalide|DTXSID9060281|WMBOCUXXNSOQHM-UHFFFAOYSA-N|AKOS028108549|N-BUTYLIDENEPHTHALIDE| (E)+(Z)|DB-315286|NS00080374|Q27289065|3-Butylidene-1(3H)-isobenzofuranone|(E)-Butylidene phthalide

>  <cas>  (77) 
nan

$$$$

     RDKit          2D

 14 15  0  0  0  0  0  0  0  0999 V2000
    5.1658    0.6429    0.0000 C   0  0  0  0  0  0  0  0  0  0  0  0
    3.7382    0.1827    0.0000 C   0  0  0  0  0  0  0  0  0  0  0  0
    2.6258    1.1890    0.0000 C   0  0  0  0  0  0  0  0  0  0  0  0
    1.1981    0.7287    0.0000 C   0  0  0  0  0  0  0  0  0  0  0  0
    0.8829   -0.7377    0.0000 C   0  0  0  0  0  0  0  0  0  0  0  0
   -0.5448   -1.1980    0.0000 C   0  0  0  0  0  0  0  0  0  0  0  0
   -0.8601   -2.6645    0.0000 O   0  0  0  0  0  0  0  0  0  0  0  0
    0.2523   -3.6707    0.0000 C   0  0  0  0  0  0  0  0  0  0  0  0
   -1.6572   -0.1917    0.0000 C   0  0  0  0  0  0  0  0  0  0  0  0
   -3.1493   -0.3450    0.0000 O   0  0  0  0  0  0  0  0  0  0  0  0
   -3.7563    1.0267    0.0000 C   0  0  0  0  0  0  0  0  0  0  0  0
   -2.6392    2.0278    0.0000 O   0  0  0  0  0  0  0  0  0  0  0  0
   -1.3419    1.2748    0.0000 C   0  0  0  0  0  0  0  0  0  0  0  0
    0.0857    1.7350    0.0000 C   0  0  0  0  0  0  0  0  0  0  0  0
  1  2  2  0
  2  3  1  0
  3  4  1  0
  4  5  2  0
  5  6  1  0
  6  7  1  0
  7  8  1  0
  6  9  2  0
  9 10  1  0
 10 11  1  0
 11 12  1  0
 12 13  1  0
 13 14  2  0
 14  4  1  0
 13  9  1  0
M  END
>  <identifier>  (78) 
CNP0188030.0

>  <canonical_smiles>  (78) 
C=CCC1=CC(OC)=C2OCOC2=C1

>  <standard_inchi>  (78) 
InChI=1S/C11H12O3/c1-3-4-8-5-9(12-2)11-10(6-8)13-7-14-11/h3,5-6H,1,4,7H2,2H3

>  <standard_inchi_key>  (78) 
BNWJOHGLIBDBOB-UHFFFAOYSA-N

>  <name>  (78) 
Myristicin

>  <iupac_name>  (78) 
6-allyl-4-methoxy-1,3-benzodioxole

>  <annotation_level>  (78) 
5

>  <total_atom_count>  (78) 
26

>  <heavy_atom_count>  (78) 
14

>  <molecular_weight>  (78) 
192.21

>  <exact_molecular_weight>  (78) 
192.07864

>  <molecular_formula>  (78) 
C11H12O3

>  <alogp>  (78) 
2.15

>  <topological_polar_surface_area>  (78) 
27.69

>  <rotatable_bond_count>  (78) 
3

>  <hydrogen_bond_acceptors>  (78) 
3

>  <hydrogen_bond_donors>  (78) 
0

>  <hydrogen_bond_acceptors_lipinski>  (78) 
3

>  <hydrogen_bond_donors_lipinski>  (78) 
0

>  <lipinski_rule_of_five_violations>  (78) 
0

>  <aromatic_rings_count>  (78) 
1

>  <qed_drug_likeliness>  (78) 
0.69

>  <formal_charge>  (78) 
0

>  <fractioncsp3>  (78) 
0.27

>  <number_of_minimal_rings>  (78) 
2

>  <van_der_walls_volume>  (78) 
177.39

>  <contains_sugar>  (78) 
False

>  <contains_ring_sugars>  (78) 
False

>  <contains_linear_sugars>  (78) 
False

>  <murcko_framework>  (78) 
O1c2ccccc2OC1

>  <np_likeness>  (78) 
1.03

>  <chemical_class>  (78) 
Benzodioxoles

>  <chemical_sub_class>  (78) 
Benzodioxoles

>  <chemical_super_class>  (78) 
Organoheterocyclic compounds

>  <direct_parent_classification>  (78) 
Benzodioxoles

>  <np_classifier_pathway>  (78) 
Shikimates and Phenylpropanoids

>  <np_classifier_superclass>  (78) 
Phenylpropanoids (C6-C3)

>  <np_classifier_class>  (78) 
Cinnamic acids and derivatives

>  <np_classifier_is_glycoside>  (78) 
False

>  <organisms>  (78) 
Aconitum leucostomum|Alpinia speciosa|Alstonia undulifolia|Anarsia lineatella|Andinobates fulguritus|Anethum graveolens|Angelica sinensis|Apium graveolens|Apollonias barbujana|Aquilegia ecalcarata|Areca catechu|Artemisia capillaris|Artemisia hanseniana|Asarum caulescens|Asarum forbesii|Asarum heteropoides var.mandshuricum|Asarum heterotropoides|Asarum heterotropoides f. schm. var. mandshuricum (maxim.) kitag.|Asarum heterotropoides var. mandshuricum|Asarum maximum|Asarum sieboldii|Asiasarum heterotropoides|Asiasarum sieboldii|Aspergillus albus|Asteriscus aquaticus|Atroxima liberica|Bergenia crassifolia|Betula platyphylla|Blumea mollis|Capparis ovata|Capsicum annuum|Carthamus tinctorius|Carum carvi|Cassine papillosa|Catalpa bignonioides|Ceanothus velutinus|Cephalonoplos segetum|Charpentiera obovata|Chlorophytum borivilianum|Christisonia bicolor|Cinnamomum glanduliferum|Cinnamomum subavenium|Cinnamomum tenuifolium|Clathria prolifera|Clematis chinensis|Codonopsis pilosula|Comaster multifida|Conioselinum vaginatum|Conus pulicarius|Convallaria majalis|Cornus officinalis|Crotalaria orixensis|Croton montevidensis|Croton tiglium|Datisca glomerata|Daucus carota|Daucus carota subsp. sativus (Hoffm.) Schuebl. & G. Martens|Daucus glaber|Dioscorea olfersiana|Diplolophium buchanani|Dipterocarpus dyeri|Dryobalanops camphora|Ecballium elaterium|Echinus microtuberculatus|Elsholtzia ciliata|Elsholtzia splendens|Esenbeckia nesiotica|Etlingera elatior|Fagus fusca|Foeniculum vulgare|Fragaria vesca|Fructus amomi|Fructus amomi rotundus|Garcinia scortechinii|Gardenia tubifera|Hansenia weberbaueriana|Helichrysum auriceps|Helipterum tenellum|Hippophae rhamnoides|Hubertia tomentosa|Hyptis tomentosa|Illicium verum|Inula britannica var. chinensis|Iotrochota purpurea|Ipomoea cairica|Ipomoea cristulata|Iris florentina|Isodon lophanthoides|Kopsia grandifolia|Lachnoanaerobaculum saburreum|Lasianthus fordii|Lawsonia inermis|Ledebouria socialis|Lens phaseoloides|Licaria brasiliensis|Ligusticum jeholense|Ligusticum porteri|Ligusticum scoticum|Ligusticum sinense|Ligustrum obtusifolium|Linum crispum|Lophocolea bidentata|Lophozonia menziesii|Lotus ucrainicus|Lycopus europaeus|Magnolia salicifolia|Metridium senile|Myelobia smerintha|Myristica cagayanensis|Myristica fragrans|Nigella sativa L|Notopterygium incisum|Octopus vulgaris|Oenanthe aquatica (L.) Poir.|Oenanthe fistulosa L.|Oenanthe peucedanifolia Pollich|Ophidiaster ophidianus|Orthodon spp.|Pachychalina alcaloidifera|Palafoxia texana|Panax innovans|Pancratium trianthum|Pastinaca sativa|Penicillium cinerascens|Perilla frutescens|Perilla frutescens (l.) britt. var. crispa (thunb.) hand.-mazz.|Perilla frutescens var. acuta|Perilla frutescens var. crispa|Perilla frutescens var.acuta|Perilla frutescens var.crispa|Persea mexicana|Petroselimum crispum|Petroselinum crispum|Petroselinum crispum (Mill.) Fuss|Phebalium dentatum|Phyllanthus oligospermus|Piper aduncum|Piper pedicellosum|Piper regnellii|Piper sarmentosum|Piper solmsianum|Platytaenia lasiocarpa|Polygonum flaccidum|Prunus armeniaca|Pseudocinchona pachyceras|Pseudowintera colorata|Quercus imbricaria|Rabdosia angustifolia|Radix smilacis|Rehmannia glutinosa|Rhodobacter sphaeroides|Rhodotypos scandens|Sanguisorba officinalis|Saururus chinensis|Scrophularia koelzii|Scutellaria sieberi|Smilax bracteata|Solanum andigena|Sordaria araneosa|Spiracantha cornifolia|Streptomyces platensis|Styrax benzoin|Teclea nobilis|Tenebrio obscurus|Thymus quinquecostatus|Thymus vulgaris|Trichosanthes kirilowii|Trichosanthes rosthornii|Tylophora tanakae|Tynanthus panurensis|Virola surinamensis|Vitex trifolia|Viviparus japonicus|Xanthostemon oppositifolius|Xenia blumi|Zieria arborescens|Ziziphus jujuba

>  <collections>  (78) 
ANPDB|AnalytiCon Discovery NPs|Australian natural products|BIOFACQUIM|CMAUP (cCollective molecular activities of useful plants)|ChEBI NPs|ETM (Ethiopian Traditional Medicine) DB|FooDB|GNPS (Global Natural Products Social Molecular Networking)|HIM (Herbal Ingredients in-vivo Metabolism database)|KNApSaCK|Latin America dataset|NANPDB (Natural Products from Northern African Sources)|NPASS|NPEdia|Phyto4Health|PubChem NPs|SANCDB|Super Natural II|TCMDB-Taiwan (Traditional Chinese Medicine database)|TCMID (Traditional Chinese Medicine Integrated Database)|TIPdb (database of Taiwan indigenous plants)|TPPT (Toxic Plants–PhytoToxins)|UNPD (Universal Natural Products Database)|VietHerb

>  <dois>  (78) 
10.1002/9780470744307.gat218|10.1002/food.19880321030|10.1016/S0031-9422(00)80682-2|10.1016/s0031-9422(00)82268-2|10.1021/acs.jnatprod.6b00262|10.1021/acs.jnatprod.9b00520|10.1021/np1004278|10.1021/np100447a|10.1021/np50115a019|10.1177/1934578X1601100416|10.1515/znc-2004-5-615

>  <synonyms>  (78) 
607-91-0|Myristicine|6-Allyl-4-methoxy-1|3-benzodioxole|4-Methoxy-6-(2-propenyl)-1|3-benzodioxole|5-Allyl-1-methoxy-2|3-(methylenedioxy)benzene|1|3-Benzodioxole| 4-methoxy-6-(2-propenyl)-|Benzene| 5-allyl-1-methoxy-2|3-(methylenedioxy)-|CHEBI:68234|5-Allyl-2|3-(methylendioxy)anisole|6-allyl-4-methoxybenzod1|3dioxole|04PD6CT78W|DTXSID1025693|MFCD00133549|4-methoxy-6-(prop-2-en-1-yl)-2H-1|3-benzodioxole|Myristicin (6CI)|CCRIS 6782|HSDB 3516|EINECS 210-146-9|BRN 0166218|UNII-04PD6CT78W|Myristicin_major|MYRISTICIN MI|MYRISTICIN HSDB|SCHEMBL68041|5-19-02-00631 (Beilstein Handbook Reference)|MLS001065535|Myristicin| analytical standard|CHEMBL481044|DTXCID605693|HMS2270K14|HY-N2510|Tox21_200172|BDBM50242966|s3291|STK693140|6-allyl-4-methoxy-benzo-1|3-dioxole|AKOS005604763|CCG-208543|NCGC00091427-01|NCGC00257726-01|1ST40367|AC-34678|CAS-607-91-0|MS-23038|SMR000112534|1-Allyl-3-methoxy-4|5-methylenedioxybenzene|CS-0022781|NS00017756|C10480|Q414057|SR-01000838340|5-ALLYL-1-METHOXY-2|3-METHYLENEDIOXYBENZENE|6-ALLYL-1|3-BENZODIOXOL-4-YL METHYL ETHER|1-Methoxy-2|3-methylenedioxy-5-(2-propenyl)benzene|myristicin|4-methoxy-6-(prop-2-enyl)benzo-1|3-dioxolan

>  <cas>  (78) 
607-91-0

$$$$

     RDKit          2D

 45 50  0  0  0  0  0  0  0  0999 V2000
    8.2155   -3.0547    0.0000 C   0  0  0  0  0  0  0  0  0  0  0  0
    7.7345   -1.6339    0.0000 O   0  0  0  0  0  0  0  0  0  0  0  0
    6.2636   -1.3401    0.0000 C   0  0  0  0  0  0  0  0  0  0  0  0
    5.2736   -2.4670    0.0000 O   0  0  0  0  0  0  0  0  0  0  0  0
    5.7826    0.0807    0.0000 C   0  0  0  0  0  0  0  0  0  0  0  0
    6.7725    1.2077    0.0000 C   0  0  0  0  0  0  0  0  0  0  0  0
    8.2434    0.9138    0.0000 O   0  0  0  0  0  0  0  0  0  0  0  0
    6.2915    2.6285    0.0000 C   0  0  0  0  0  0  0  0  0  0  0  0
    4.8206    2.9223    0.0000 C   0  0  0  0  0  0  0  0  0  0  0  0
    3.8306    1.7954    0.0000 C   0  0  0  0  0  0  0  0  0  0  0  0
    2.4065    2.2663    0.0000 O   0  0  0  0  0  0  0  0  0  0  0  0
    4.3116    0.3746    0.0000 C   0  0  0  0  0  0  0  0  0  0  0  0
    3.3217   -0.7524    0.0000 C   0  0  0  0  0  0  0  0  0  0  0  0
    3.8027   -2.1732    0.0000 O   0  0  0  0  0  0  0  0  0  0  0  0
    1.8508   -0.4585    0.0000 C   0  0  0  0  0  0  0  0  0  0  0  0
    0.8608   -1.5855    0.0000 C   0  0  0  0  0  0  0  0  0  0  0  0
    1.3418   -3.0063    0.0000 O   0  0  0  0  0  0  0  0  0  0  0  0
   -0.6101   -1.2917    0.0000 C   0  0  0  0  0  0  0  0  0  0  0  0
   -1.0911    0.1291    0.0000 C   0  0  0  0  0  0  0  0  0  0  0  0
   -2.2561    0.8160    0.0000 C   0  0  0  0  0  0  0  0  0  0  0  0
   -3.4678    1.4163    0.0000 C   0  0  0  0  0  0  0  0  0  0  0  0
   -3.0649    2.8612    0.0000 C   0  0  0  0  0  0  0  0  0  0  0  0
   -1.6840    3.4470    0.0000 C   0  0  0  0  0  0  0  0  0  0  0  0
   -0.3651    2.7327    0.0000 C   0  0  0  0  0  0  0  0  0  0  0  0
   -0.7680    1.2878    0.0000 C   0  0  0  0  0  0  0  0  0  0  0  0
    0.3590    0.2979    0.0000 O   0  0  0  0  0  0  0  0  0  0  0  0
   -2.1489    0.7020    0.0000 C   0  0  0  0  0  0  0  0  0  0  0  0
   -2.1080   -0.7975    0.0000 C   0  0  0  0  0  0  0  0  0  0  0  0
   -1.0011   -1.8097    0.0000 O   0  0  0  0  0  0  0  0  0  0  0  0
   -3.3861   -1.5826    0.0000 C   0  0  0  0  0  0  0  0  0  0  0  0
   -3.3453   -3.0820    0.0000 C   0  0  0  0  0  0  0  0  0  0  0  0
   -2.0263   -3.7963    0.0000 O   0  0  0  0  0  0  0  0  0  0  0  0
   -4.6234   -3.8671    0.0000 C   0  0  0  0  0  0  0  0  0  0  0  0
   -5.9424   -3.1527    0.0000 C   0  0  0  0  0  0  0  0  0  0  0  0
   -7.2206   -3.9378    0.0000 C   0  0  0  0  0  0  0  0  0  0  0  0
   -5.9833   -1.6533    0.0000 C   0  0  0  0  0  0  0  0  0  0  0  0
   -4.7051   -0.8682    0.0000 C   0  0  0  0  0  0  0  0  0  0  0  0
   -4.7460    0.6312    0.0000 C   0  0  0  0  0  0  0  0  0  0  0  0
   -6.0650    1.3456    0.0000 O   0  0  0  0  0  0  0  0  0  0  0  0
   -6.1058    2.8450    0.0000 C   0  0  0  0  0  0  0  0  0  0  0  0
   -7.4248    3.5594    0.0000 C   0  0  0  0  0  0  0  0  0  0  0  0
   -4.8277    3.6301    0.0000 O   0  0  0  0  0  0  0  0  0  0  0  0
   -0.1012    1.2561    0.0000 C   0  0  0  0  0  0  0  0  0  0  0  0
    1.3698    0.9622    0.0000 C   0  0  0  0  0  0  0  0  0  0  0  0
    2.2149    2.2015    0.0000 O   0  0  0  0  0  0  0  0  0  0  0  0
  1  2  1  0
  2  3  1  0
  3  4  2  0
  3  5  1  0
  5  6  2  0
  6  7  1  0
  6  8  1  0
  8  9  2  0
  9 10  1  0
 10 11  1  0
 10 12  2  0
 12 13  1  0
 13 14  2  0
 13 15  1  0
 15 16  2  0
 16 17  1  0
 16 18  1  0
 18 19  2  0
 19 20  1  0
 21 20  1  1
 21 22  1  0
 22 23  2  0
 24 23  1  1
 24 25  1  0
 25 26  2  0
 25 27  1  0
 27 28  2  0
 28 29  1  0
 28 30  1  0
 30 31  2  0
 31 32  1  0
 31 33  1  0
 33 34  2  0
 34 35  1  0
 34 36  1  0
 36 37  2  0
 37 38  1  0
 38 39  1  6
 39 40  1  0
 40 41  1  0
 40 42  2  0
 24 43  1  0
 43 44  2  0
 44 45  1  0
 12  5  1  0
 44 15  1  0
 43 19  1  0
 27 21  1  0
 37 30  1  0
 38 21  1  0
M  END
>  <identifier>  (79) 
CNP0302882.1

>  <canonical_smiles>  (79) 
COC(=O)C1=C(O)C=CC(O)=C1C(=O)C1=C(O)C=C2C[C@@]34C=C[C@H](C(=O)C3=C(O)C3=C(O)C=C(C)C=C3[C@@H]4OC(C)=O)C2=C1O

>  <standard_inchi>  (79) 
InChI=1S/C33H26O12/c1-12-8-16-22(19(37)9-12)30(42)26-27(39)15-6-7-33(26,31(16)45-13(2)34)11-14-10-20(38)25(28(40)21(14)15)29(41)23-17(35)4-5-18(36)24(23)32(43)44-3/h4-10,15,31,35-38,40,42H,11H2,1-3H3/t15-,31-,33-/m0/s1

>  <standard_inchi_key>  (79) 
OFAIMNXQEZOWPU-RXKIPKFJSA-N

>  <name>  (79) 
Acremonidin A

>  <iupac_name>  (79) 
methyl 2-[(1~{R},2~{S},12~{S})-2-acetoxy-7,9,14,16-tetrahydroxy-5-methyl-11-oxo-pentacyclo[10.7.2.0^{1,10}.0^{3,8}.0^{13,18}]henicosa-3,5,7,9,13,15,17,20-octaene-15-carbonyl]-3,6-dihydroxy-benzoate

>  <annotation_level>  (79) 
5

>  <total_atom_count>  (79) 
71

>  <heavy_atom_count>  (79) 
45

>  <molecular_weight>  (79) 
614.56

>  <exact_molecular_weight>  (79) 
614.14243

>  <molecular_formula>  (79) 
C33H26O12

>  <alogp>  (79) 
3.89

>  <topological_polar_surface_area>  (79) 
208.12

>  <rotatable_bond_count>  (79) 
4

>  <hydrogen_bond_acceptors>  (79) 
12

>  <hydrogen_bond_donors>  (79) 
6

>  <hydrogen_bond_acceptors_lipinski>  (79) 
12

>  <hydrogen_bond_donors_lipinski>  (79) 
6

>  <lipinski_rule_of_five_violations>  (79) 
3

>  <aromatic_rings_count>  (79) 
3

>  <qed_drug_likeliness>  (79) 
0.11

>  <formal_charge>  (79) 
0

>  <fractioncsp3>  (79) 
0.21

>  <number_of_minimal_rings>  (79) 
7

>  <van_der_walls_volume>  (79) 
504.14

>  <contains_sugar>  (79) 
False

>  <contains_ring_sugars>  (79) 
False

>  <contains_linear_sugars>  (79) 
False

>  <murcko_framework>  (79) 
c1ccc(cc1)Cc2ccc3c(c2)C4C=CC5(C(=Cc6ccccc6C5)C4)C3

>  <np_likeness>  (79) 
1.95

>  <chemical_class>  (79) 
Benzene and substituted derivatives

>  <chemical_sub_class>  (79) 
Benzophenones

>  <chemical_super_class>  (79) 
Benzenoids

>  <direct_parent_classification>  (79) 
Benzophenones

>  <np_classifier_pathway>  (79) 
Polyketides

>  <np_classifier_superclass>  (79) 
Polycyclic aromatic polyketides

>  <np_classifier_class>  (79) 
nan

>  <np_classifier_is_glycoside>  (79) 
False

>  <organisms>  (79) 
Acremonium sp. LL-Cyan 416|Purpureocillium lilacinum

>  <collections>  (79) 
BIOFACQUIM|KNApSaCK|Latin America dataset|NPASS|NPAtlas|NPEdia|Super Natural II

>  <dois>  (79) 
10.1021/np4002477|10.7164/antibiotics.56.923

>  <synonyms>  (79) 
CHEBI:198558|HY-N10198|CS-0372519|methyl 2-(1R|2S|12S)-2-acetyloxy-7|9|14|16-tetrahydroxy-5-methyl-11-oxopentacyclo10.7.2.01|10.03|8.013|18henicosa-3(8)|4|6|9|13|15|17|20-octaene-15-carbonyl-3|6-dihydroxybenzoate|Acremonidin A

>  <cas>  (79) 
nan

$$$$

     RDKit          2D

 14 14  0  0  0  0  0  0  0  0999 V2000
    3.3336   -2.7795    0.0000 C   0  0  0  0  0  0  0  0  0  0  0  0
    3.5577   -1.2963    0.0000 O   0  0  0  0  0  0  0  0  0  0  0  0
    2.3854   -0.3606    0.0000 C   0  0  0  0  0  0  0  0  0  0  0  0
    0.9889   -0.9080    0.0000 C   0  0  0  0  0  0  0  0  0  0  0  0
   -0.1835    0.0277    0.0000 C   0  0  0  0  0  0  0  0  0  0  0  0
   -1.5800   -0.5197    0.0000 C   0  0  0  0  0  0  0  0  0  0  0  0
   -2.7524    0.4161    0.0000 C   0  0  0  0  0  0  0  0  0  0  0  0
   -4.1489   -0.1314    0.0000 C   0  0  0  0  0  0  0  0  0  0  0  0
   -4.3731   -1.6145    0.0000 O   0  0  0  0  0  0  0  0  0  0  0  0
   -5.3213    0.8044    0.0000 O   0  0  0  0  0  0  0  0  0  0  0  0
    0.0407    1.5109    0.0000 C   0  0  0  0  0  0  0  0  0  0  0  0
    1.4372    2.0583    0.0000 C   0  0  0  0  0  0  0  0  0  0  0  0
    2.6096    1.1226    0.0000 C   0  0  0  0  0  0  0  0  0  0  0  0
    4.0061    1.6700    0.0000 O   0  0  0  0  0  0  0  0  0  0  0  0
  1  2  1  0
  2  3  1  0
  3  4  2  0
  4  5  1  0
  5  6  1  0
  6  7  2  3
  7  8  1  0
  8  9  2  0
  8 10  1  0
  5 11  2  0
 11 12  1  0
 12 13  2  0
 13 14  1  0
 13  3  1  0
M  END
>  <identifier>  (80) 
CNP0304940.0

>  <canonical_smiles>  (80) 
COC1=CC(C=CC(=O)O)=CC=C1O

>  <standard_inchi>  (80) 
InChI=1S/C10H10O4/c1-14-9-6-7(2-4-8(9)11)3-5-10(12)13/h2-6,11H,1H3,(H,12,13)

>  <standard_inchi_key>  (80) 
KSEBMYQBYZTDHS-UHFFFAOYSA-N

>  <name>  (80) 
(E/Z)-ferulic acid

>  <iupac_name>  (80) 
3-(4-hydroxy-3-methoxy-phenyl)prop-2-enoic acid

>  <annotation_level>  (80) 
5

>  <total_atom_count>  (80) 
24

>  <heavy_atom_count>  (80) 
14

>  <molecular_weight>  (80) 
194.19

>  <exact_molecular_weight>  (80) 
194.05791

>  <molecular_formula>  (80) 
C10H10O4

>  <alogp>  (80) 
1.50

>  <topological_polar_surface_area>  (80) 
66.76

>  <rotatable_bond_count>  (80) 
3

>  <hydrogen_bond_acceptors>  (80) 
3

>  <hydrogen_bond_donors>  (80) 
2

>  <hydrogen_bond_acceptors_lipinski>  (80) 
3

>  <hydrogen_bond_donors_lipinski>  (80) 
2

>  <lipinski_rule_of_five_violations>  (80) 
0

>  <aromatic_rings_count>  (80) 
1

>  <qed_drug_likeliness>  (80) 
0.72

>  <formal_charge>  (80) 
0

>  <fractioncsp3>  (80) 
0.10

>  <number_of_minimal_rings>  (80) 
1

>  <van_der_walls_volume>  (80) 
172.89

>  <contains_sugar>  (80) 
False

>  <contains_ring_sugars>  (80) 
False

>  <contains_linear_sugars>  (80) 
False

>  <murcko_framework>  (80) 
c1ccccc1

>  <np_likeness>  (80) 
0.93

>  <chemical_class>  (80) 
Cinnamic acids and derivatives

>  <chemical_sub_class>  (80) 
Hydroxycinnamic acids and derivatives

>  <chemical_super_class>  (80) 
Phenylpropanoids and polyketides

>  <direct_parent_classification>  (80) 
Hydroxycinnamic acids

>  <np_classifier_pathway>  (80) 
Shikimates and Phenylpropanoids

>  <np_classifier_superclass>  (80) 
Phenylpropanoids (C6-C3)

>  <np_classifier_class>  (80) 
Cinnamic acids and derivatives

>  <np_classifier_is_glycoside>  (80) 
False

>  <organisms>  (80) 
Abelia chinensis|Acacia linarioides|Achlys triphylla|Aconitum burnatii|Aconitum koreanum|Acrocarpia paniculata|Actaea dahurica|Actaea heracleifolia|Actaea racemosa|Actaea simplex|Aeschynanthus bracteatus|Aesculus hippocastanum|Aganosma caryophyllata|Agave salmiana|Ailanthus altissima|Ainsliaea uniflora|Ajuga iva|Albizia procera|Alcea rosea|Alcyonium utinomii|Aldisa sanguinea|Alectoria ochroleuca|Allium cepa|Allium sativum|Aloe africana|Aloe ferox|Aloe spicata|Aloe vera|Alpinia blepharocalyx|Alstonia angustiloba|Alstonia undulifolia|Alternanthera bettzickiana|Amaranthus hypochondriacus|Amsinckia tessellata|Ananas comosus|Anastatica hierochuntica|Andrographis elongata|Andrographis paniculata|Andrographis viscosula|Anemone tomentosa|Anethum graveolens|Angelica acutiloba|Angelica acutiloba (Hokkado)|Angelica acutiloba (Toyama)|Angelica archangelica|Angelica furcijuga KITAGAWA|Angelica gigas|Angelica pubescens|Angelica sinensis|Anguilla japonica|Annona cherimola|Annulohypoxylon cohaerens|Anodendron affine|Anolis lineatopus|Anthemis nobilis|Anthocercis albicans|Antitoxicum scanden|Aonidiella aurantii|Apis mellifera|Apis mellifera ligustica|Aplophyllum alberti-regelii|Aplophyllum pedicellatum|Aplysia dactylomela|Aplysina archeri|Aquilegia viridiflora|Arabidopsis thaliana|Arachis hypogaea|Araiostegiella perdurans|Aralia continentalis|Arenaria kansuensis var.ovatipeatala|Aristolochia heterophylla Hemsl|Aristolochia manshuriensis|Arnebia euchroma|Artemisia dracunculus|Artemisia giraldii|Artemisia pectinata|Artemisia porrecta|Aruncus diocus|Asimina parviflora|Aspalathus linearis|Asparagus africanus|Asparagus cochinchinensis|Asparagus officinalis|Aspergillus carneus|Aspergillus microcysticus|Aspergillus mutabilis|Aspergillus striatus|Aspidixia articulata|Asteriscus aquaticus|Asterococcus muratae|Astragalus kabadianus|Atraphaxis spinosa|Aucuba chinensis|Aurelia aurita|Avena sativa|Axinella agnata|Baccharis grandicapitulata|Baccharis neglecta|Bacillus amyloliquefaciens|Bacterium from|Balanops australiana|Balsamorhiza hookeri|Baphia bancoensis|Bassia scoparia|Beesia calthifolia|Berberis darwinii|Beta vulgaris|Betula platyphylla|Bistorta vivipara|Bohadschia vitiensis|Boschniakia rossica|Botrychium ternatum|Brachanthemum gobicum|Brassica napus|Brassica oleracea|Brassica rapa|Breonia chinensis|Briareum violacea|Brickellia vernicosa|Brombya platynema|Bulbophyllum protractum|Bupleurum sibiricum|Bursera kerberi|Bursera tonkinensis|Calea subcordata|Calligonum leucocladum|Callyspongia siphonella|Calystegia pubescens|Camellia sinensis|Campylotropis hirtella|Capparis ovata|Capparis spinosa|Capsicum annuum|Carica dodecaphylla|Carthamus tinctorius|Cassine papillosa|Catalpa ovata|Cedrela salvadorensis|Cedronella canariensis|Celastrus dispermus|Centaurea huber-morathii|Centaurea maculosa|Centella asiatica|Centipeda minima|Ceramaster patagonicus|Ceratozamia kuesteriana|Cerbera odollam|Ceropegia dichotoma|Cestrum nocturnum|Chalciporus piperatus|Chamaecyparis formosensis|Charpentiera obovata|Chelidonium majus|Chenopodium formosanum|Chondria californica|Chondrodendron tomentosum|Chrysanthemum x morifolium|Chrysosplenium americanum|Cicer arietinum|Cichorium endivia|Cimicifuga dahurica|Cimicifuga foetida|Cimicifuga heracleifolia|Cinnamomum subavenium|Cinnamomum tenuifolium|Citrullus lanatus|Citrus aurantium|Citrus limon|Citrus limonia|Citrus paradisi|Citrus reticulata|Citrus sinensis|Citrus sudachi|Citrus tangerina|Citrus unshiu|Citrus wilsonii|Clathria basilana|Clathria prolifera|Clerodendrum bungei|Clerodendrum trichotomum|Clinacanthus nutans|Clinopodium gracile|Cnidium officinale|Cochlospermum planchoni|Codonopsis pilosula|Coelogyne flavida|Coffea arabica|Coffea canephora|Coffea liberica var. dewevrei|Colpomenia sinuosa|Colubrina faralaotra subsp.trichocarpa.|Conioselium vaginatum|Conus mus|Conus pulicarius|Conus tessulatus|Conyza schimperi|Coptis chinensis|Coptis deltoidea|Coptis japonica|Coptis teeta|Cordia leucocephala|Coriandrum sativum|Cortex lycii radicis|Cortinarius odoratus|Corydalis decumbens|Costasiella ocellifera|Cremastra appendiculata|Creosphaeria sassafras|Crepidotus fulvotomentosus|Crinum moorei|Crocus minimus|Crotalaria candicans|Crotalaria stolzii|Croton montevidensis|Cryptocarya infectoria|Cryptosporium pinicola|Cucumis sativus|Cucurbita maxima|Cucurbita moschata|Cucurbita pepo|Cuminum cyminum|Cunonia macrophylla|Curculigo pilosa|Curcuma aeruginosa|Curcuma domestica|Cyathocline lyrata|Cynanchum thesioides|Cynometra lujae|Cyperus rotundus|Cyperus rotundus L.|Cypripedium calceolus|Daemonorops draco|Daphne arisanensis|Daphne feddei|Datisca glomerata|Delisea elegans|Delphinium crassifolium|Delphinium giraldii|Dendrobium loddigesii|Dendronephthya griffini|Desmodium styracifolium|Dioscorea olfersiana|Diospyros assimilis|Diospyros canaliculata|Diospyros glaucifolia|Diospyros morrisiana|Distephanus angulifolius|Dolabella californica|Dracocephalum moldavicum|Drynaria fortunei|Durio oxleyanus|Dysoxylum schiffneri|Ecballium elaterium|Echinacea purpurea|Echinaster echinophorus|Echinus microtuberculatus|Ekebergia senegalensis|Eleutherobia albiflora|Eleutherococcus senticosus|Elymnias thryallis|Embelia parviflora|Embelia schimperi|Emericellopsis minima|Entada rheedei|Ephedra sinica|Epilobium hirsutum|Equisetum hiemale|Equisetum hyemale|Equsetum arvense|Eria anomala|Eria japonica|Ericerus pela|Eriobotrya japonica|Eriocaulon buergerianum|Eriostemon crowei|Eritrichium sericeum|Erylus trisphaerus|Erysimum leptophyllum|Erythrina americana|Erythrina melanacantha|Esenbeckia leiocarpa|Eucalyptus albens|Eucalyptus apodophylla|Eucalyptus camaldulensis|Eucalyptus coccifera|Eucalyptus globulus|Eucalyptus globulus subsp. bicostata|Eucalyptus jenseni|Eucalyptus occidentalis|Euclea crispa|Eucommia ulmoides|Euonymus fortunei|Euonymus tingens|Eupatorium areolare|Euphorbia cornigera|Euphorbia nematocypha|Euphorbia sikkimensis|Euploca racemosa|Eutrema japonicum|Excoecaria acerifolia|Exochomus quadripustulatus|FOOD SAKE|Fagopyrum esculentum|Fagus fusca|Falcaria vulgaris|Fallopia multiflora|Faramea salicifolia|Felimida luteorosea|Ferula assa-foetida|Ferula assafoetida|Ferula foetida|Flemingia rhodocarpa|Flourensia ilicifolia|Foeniculum vulgare|Forsythia suspensa|Forsythia viridissima|Fusarium avenaceum|Fusarium sacchari|Gaertnera morindoides|Garcinia andamanica|Garcinia cambogia|Gardenia lucida|Garrya laurifolia|Gaylussacia baccata|Ginkgo biloba|Glechoma grandis|Glechoma longituba|Gleditsia caspica|Glehnia littoralis|Glycine max|Glycosmis macrophylla|Glycyrrhiza uralensis|Gnetum pendulum|Goupia glabra|Gracilaria textorii|Guadua angustifolia|Guettarda noumeana|Gutierrezia dracunculoides|Gymnadenia conopsea R.BR.|Gymnocalycium schickendantzii|Gymnopus confluens|Gynerium sagittatum|Gypsophila perfoliata|Gyrostroma missouriense|Halichondria melanadocia|Hansenia forbesii|Hansenia weberbaueriana|Haplophyllum obtusifolium|Haplophyllum ramosissimum|Hedychium coronarium|Hedysarum gmelini|Helenium integrifolium|Helianthus annuus|Helichrysum auriceps|Helichrysum mixtum|Helichrysum tenuifolium|Helipterum gnaphaloides|Helleborus serbicus|Herba artemisiae scopariae|Herba nerviliae|Hertia cheirifolia|Hexagonia speciosa|Hibiscus taiwanensis|Hippophae rhamnoides|Homalium longifolium|Homo sapiens|Hortonia floribunda|Hubertia tomentosa|Humata pectinata|Humulus lupulus|Huperzia selago|Hylocomium splendens|Hypericum androsaemum|Hypericum perforatum|Hypericum polyanthemum|Hypericum styphelioides|Hyrtios erecta|Hyssopus officinalis|Idea leuconoe|Ilyonectria destructans|Impatiens balsamina|Imperata cylindrica|Inula britannica|Iotrochota birotulata|Iotrochota purpurea|Ipomoea purpurea|Isatis tinctoria|Jaborosa leucotricha|Jateorhiza columba|Juglans regia|Juniperus drupacea|Juniperus rigida|Juniperus scopulorum|Kadsura interior|Kali turgidum|Kiggelaria africana|Kokoona reflexa|Lactuca laciniata|Lactuca sativa|Laggera alata|Lampranthus sociorum|Lasianthaea podocephala|Lasiosiphon kraussianus|Latrunculia magnifica|Laurencia pinnatifida|Lavandula pedunculata|Lecania gerlachei|Lemaireocereus longispinus|Lens culinaris|Lens esculenta|Leonurus heterophyllus|Levisticum officinale|Libanothamnus occultus|Licaria chrysophylla|Ligularia anoleuca|Ligusticum brachylobum|Ligusticum chuanxiong|Ligusticum chuanxiong HORT.|Ligusticum jeholense|Ligusticum multivittatum|Ligusticum porteri|Ligusticum sinense|Ligusticum sinense cv.chaxiong|Ligusticum tenuissimum|Ligustrum obtusifolium|Lindera obtusiloba|Linum usitatissimum|Lippia adoensis|Lithothamnion corallioides|Lobophytum schoedei|Lonicera japonica|Lotus ucrainicus|Lucilia caesar|Lupinus cosentinii|Lupinus luteus|Lycium barbarum|Lycium chinense|Lycogala epidendrum|Lycopodium erythraeum|Lycopodium japonicum|Lycopodium japonium|Lysiana subfalcata|Lysimachia christinae|Lythrum salicaria|Macaranga peltata|Macaranga triloba|Macrolepiota neomastoidea|Maesa ramentacea|Maize bran|Malassezia furfur|Mallotus metcalfianus|Malus domestica|Malus pumila|Malva silvestris|Marrubium cylleneum|Marrubium velutinum|Martensia denticulata|Matricaria recutita|Medinilla magnifica|Melampodium leucanthum|Melanargia galathea|Melia azedarach|Melia azedarach var. toosendan|Melissa officinalis|Melolontha melolontha|Mentha cardiaca|Mentha spicata|Mesua ferrea|Metridium senile|Mexican propolis|Microcos paniculata|Micromonospora echinospora|Millettia ichthyochtona|Millettia laurentii|Millettia pinnata|Millettia thonningii|Monodora tenuifolia|Monopteryx uaucu|Monsonia senegalensis|Morella pensylvanica|Morella rubra|Morinda morindoides|Moringa oleifera|Morus alba|Mucor globosus|Myelobia smerintha|Myrciaria dubia|Myristica cagayanensis|Myristica fragrans|Myxococcus stipitatus|Nardostachys jatamansi|Nauclea rhynchophylla|Nelumbo nucifera|Neocosmospora tenuicristata|Neopetrosia exigua|Neurospora sitophila|Nicotiana tabacum|Nostoc spongiaeforme|Nothofagus dombeyi|Notholirion hyacinthinum|Notopterygium incisum|Nototodarus sloanii|Ochna obtusata|Ocimum basilicum|Ocimum tenuiflorum|Oldenlandia diffusa|Olea europaea|Onobrychis bobrovii|Ononis spinosa|Onopordum acanthium|Ophelia neglecta|Ophidiaster ophidianus|Opopanax chironicum|Opuntia dellenii|Opuntia ficus-indica var.saboten|Origanum majorana|Origanum vulgare|Ormosia dasycarpa|Ormosia hosiei|Ornithoglossum viride|Orobanche speciosa|Oryza sativa|Osteospermum muricatum|Ostericum grosseserratum|Oxylobus oaxacanus|Paeonia lactiflora|Paeonia rockii|Paeonia suffruticosa|Pajanelia multijuga|Pancratium sickenbergeri|Papaver persicum|Papaver pseudocanescens|Parablechnum minus|Parmelia caraccensis|Parmelia tinctina|Pastinaca sativa|Pecten irradians|Pellacalyx axillaris|Penicillium cyclopium|Penicillium janczewskii|Penstemon newberryi|Pentaclethra macrophylla|Peperomia duclouxii C. DC.|Peperomia vulcanica|Perilla frutescens|Periploca graeca|Periploca sepium|Pertusaria amara|Pertusaria truncata|Perymenium jelskii|Perymenium mendezii|Pestalotiopsis oenotherae|Petasites formosanus|Petasites laevigatus|Petteria ramentacea|Phaeolus schweinitzii|Pharbitis nil|Phascolion strombus|Phaseolus lunatus|Phaseolus vulgaris|Phebalium dentatum|Phebalium drummondii|Phellodendron amurense|Phellodendron chinense|Phellodendron chinese|Phenax angustifolius|Phleum pratense|Phlogacanthus tubiflorus|Phlomis crinita|Phoenix dactylifera|Phragmites australis|Phyllanthus oligospermus|Phyllostachys edulis|Physalis alkekengi|Physalis edulis|Picea ajanensis|Picea glauca|Picea obovata|Picrorhiza kurrooa|Picrorhiza scrophulariiflora|Pimpinella anisum|Pinellia ternata|Pinus laricio|Pinus strobus|Pinus sylvestris|Piper auritum|Piper brachystachyum|Piper regnellii|Piptadenia colubrina|Pisum sativum|Planchonia grandis|Planococcus citri|Plantago arborescens|Plantago lanceolata|Plantago major|Plantago media|Plathymenia reticulata|Platycarya strobilacea|Plectranthus myrianthus|Pleione bulbocodioides|Pleione yunnanensis|Pluchea odorata|Pocillopora eydouxi|Podospora curvicolla|Polygonum cuspidatum|Polygonum flaccidum|Polypodium decumanum|Ponera metallica|Populus angustifolia|Populus pseudosimonii|Portulaca oleracea|Posidonia oceanica|Potentilla candicans|Premna tomentosa|Protea roupelliae|Prunella vulgaris|Prunus armeniaca|Prunus domestica|Prunus mahaleb|Pseudocyphellaria australiensis|Pseudomonas pseudoalcaligenes|Pseudoplexaura flagellosa|Pseudostellaria heterophylla|Pseudowintera colorata|Psidium acutangulum|Pteridium esculentum|Pteris altissima|Pteris multifida|Pterocaulon virgatum|Pterogyne nitens|Pulsatilla koreana|Punica granatum|Pyrobaculum organotrophum|Quercus imbricaria|Ranunculus baudotii|Raphanus sativus|Rehmannia glutinosa|Renealmia alpinia|Reseda muricata C.Presl.|Rhamnus cathartica|Rhamnus formosana|Rhaponticum carthamoides|Rheum coreanum|Rheum officinale|Rheum palmatum|Rheum rhabarbarum|Rheum tanguticum|Rhinella marina|Rhizoma fagopyri cymosi|Rhizomnium magnifolium|Rhodiola semenovii|Rhododendron dauricum|Rhododendron mucronulatum|Ribes nigrum|Robinia pseudoacacia|Rosmarinus officinalis|Rostellularia procumbens|Rubia tetragona|Rubus chamaemorus|Rubus chingii|Rubus coreanus|Rubus idaeus|Rumex chalepensis|Rumex japonicus|Sabia japonica|Sagittaria sagittifolia|Salacia lehmbachii|Salix acutifolia|Salvia miltiorrhiza|Salvia officinalis|Salvia sessei|Salvia trijuga|Salvia yosgadensis|Sarcophyton flexuosum|Sasa paniculata|Sauromatum giganteum|Saussurea amara|Saussurea involucrata|Schizanthus tricolor|Scrophularia buergeriana|Scrophularia koelzii|Scrophularia ningpoensis|Scrophularia scorodonia|Scutellaria albida subsp.albida|Scutellaria baicalensis|Secale cereale|Sedum forsteri|Sedum takesimense Nakai|Selaginella pulvinata|Selaginella tamariscina|Selinum libanotis|Senecio cathcartensis|Senecio congestus|Senecio ruwenzoriensis|Senna didymobotrya|Senna spectabilis|Sequoia sempervirens|Sesamum orientale|Shigella dysenteriae|Sia ferox|Sideritis brevibracteata|Sideritis dasygnaphala|Sideritis euboea|Sideroxylon cubense|Siegesbeckia orientalis var.glabrescens|Simarouba glauca|Siphonaria capensis|Siphonochilus aethiopicus|Sisyrinchium californicum|Smilax china|Smilax glabra|Solanum aculeatissimum|Solanum andigena|Solanum chilense|Solanum lycopersicum|Solanum melongena|Solanum nigrum|Solanum tuberosum|Sonneratia caseolaris|Sophora flavescens|Sorbus tianschanica|Sparganium stoloniferum|Sphaeranthus confertifolius|Spinacia oleracea|Spiracantha cornifolia|Spiraea formosana|Spongionella gracilis|Stellaria media|Stenolobium stans|Stephania elegans|Stephania zippeliana|Streptomyces|Streptomyces GT5/020|Streptomyces argenteolus|Streptomyces flaveus|Streptomyces hebeiensis|Streptomyces melanogenes|Streptomyces microflavus|Streptomyces mutabilis sp. MII|Streptomyces parvisporogenes|Streptomyces pentaticus|Streptomyces platensis|Streptomyces pseudovenezuelae|Strychnos elaeocarpa|Strychnos wallichiana|Swertia angustifolia|Swertia swertopsis|Syringa pinnafolia|Syzygium polycephaloides|Talaromyces variabilis|Tamarix chinensis|Taraxacum borealisinense|Taraxacum coreanum|Taraxacum mongolicum|Taraxacum officinale|Taraxacum platycarpum|Tarchonanthus camphoratus|Taxus baccata|Taxus brevifolia|Tephroseris kirilowii|Teucrium pernyi|Thea sasanqua|Theobroma cacao|Theonella conica|Thermococcus kodakarensis|Thonningia sanguinea|Thorectandra excavatus|Thymus quinquecostatus|Thymus vulgaris|Tiliacora racemosa|Torilis radiata|Trachylobium verrucosum|Trachyrhamphus serratus|Tribulus terrestris|Trichilia havanensis|Trichoderma koningi|Tricholoma columbetta|Trifolium strepens|Trigonella foenum-graecum|Tripterospermum lanceolatum|Tristania conferta|Triticum aestivum|Triticum durum|Tropaeolum majus|Tsuga chinensis|Tsuga heterophylla|Tussilago farfara|Tylophora tanakae|Urtica dioica|Uruparia lanosa|Usnea undulata|Utricularia australis|Vaccinium alaskaense|Vaccinium angustifolium|Vaccinium corymbosum|Vaccinium deliciosum|Vaccinium macrocarpon|Vaccinium myrtillus|Vaccinium ovatum|Vaccinium oxycoccos|Vaccinium parvifolium|Vaccinium uliginosum|Vachellia leucophloea|Valeriana laxiflora|Varronia linnaei|Vellozia nanuzae|Verbascum laxum|Vernonia cistifolia|Vernonia fagifolia|Veronica liwanensis|Veronica orientalis|Veronica polita|Veronica virginica|Viburnum betulifolium|Vicia faba|Vigna angularis|Vigna umbellata|Vigna umbeuata|Vigna unguiculata|Viguiera decurrens|Virgilia divaricata|Viscum coloratum|Vitex rotundifolia|Vitis thunbergii|Vitis vinifera|Vittaria anguste-elongata|Viviparus japonicus|Wasabia japonica|Woodsia manchuriensis|Woodwardia prolifera|Xanthium sibiricum|Xanthium strumarium|Zea mays|Zephyranthes flava|Zingiber officinale|Ziziphus jujuba|Ziziphus jujuba mill. var. inermis (bge.) rehd.|Ziziphus jujuba var. spinosa|Ziziphus jujuba var.spinosa|dracocephalum ruyschiana

>  <collections>  (80) 
ANPDB|Australian natural products|BIOFACQUIM|CMAUP (cCollective molecular activities of useful plants)|ChEBI NPs|ChemSpider NPs|ConMedNP|DrugBankNP|EMNPD|ETM (Ethiopian Traditional Medicine) DB|Exposome-explorer|FooDB|GNPS (Global Natural Products Social Molecular Networking)|HIM (Herbal Ingredients in-vivo Metabolism database)|InPACdb|InterBioScreen Ltd|KNApSaCK|Latin America dataset|Mitishamba database|NANPDB (Natural Products from Northern African Sources)|NPACT|NPASS|NPCARE|NPEdia|NuBBEDB|Phenol-explorer|Phyto4Health|PubChem NPs|ReSpect|SANCDB|StreptomeDB|Super Natural II|Supernatural3|TCMDB-Taiwan (Traditional Chinese Medicine database)|TCMID (Traditional Chinese Medicine Integrated Database)|TIPdb (database of Taiwan indigenous plants)|UNPD (Universal Natural Products Database)|VietHerb|Watermelon|ZINC NP

>  <dois>  (80) 
10.1007/BF00367119|10.1007/s00425-015-2256-x|10.1007/s11130-020-00822-2|10.1016/j.ab.2009.06.036|10.1016/j.bmc.2007.01.035|10.1016/j.bmc.2010.01.046|10.1016/j.bmc.2010.01.088|10.1016/j.bmcl.2013.12.006|10.1016/j.bmcl.2015.01.034|10.1016/j.foodchem.2020.128444|10.1016/j.foodres.2019.108899|10.1016/j.jfca.2006.05.007|10.1021/acs.jnatprod.5b01012|10.1021/acs.jnatprod.6b00582|10.1021/acs.jnatprod.6b00823|10.1021/acs.jnatprod.8b00670|10.1021/jf101029a|10.1021/np050301s|10.1021/np100447a|10.1021/np300609u|10.1021/np900772m|10.1071/bt9690133|10.1080/14786419.2011.587422|10.1093/pcp/pcn183|10.1111/1750-3841.12404|10.1111/j.1365-2362.2006.01676.x|10.1186/1471-2180-12-164|10.1186/bcr752|10.1186/s12906-015-0873-3|10.13005/ojc/300334|10.1371/journal.pone.0073076|10.1515/hf.2002.024|10.1515/znc-2017-0140|10.1590/S0100-40422008000400018|10.3390/foods9060770|10.3390/molecules24162945|10.3390/molecules24183212|10.3390/molecules27020483|10.3390/molecules27061860|10.3945/jn.109.113613

>  <synonyms>  (80) 
3-(4-hydroxy-3-methoxyphenyl)prop-2-enoic acid|DTXSID5040673|Spectrum_001256|SpecPlus_000547|Spectrum2_001394|Spectrum3_001434|Spectrum4_001897|KBioGR_002459|KBioSS_001736|DivK1c_006643|SPBio_001408|CHEMBL3185646|KBio1_001587|KBio2_001736|KBio2_004304|KBio2_006872|KBio3_002388|3-methoxy4-hydroxy cinnamic acid|4-hydroxyl-3-methoxycinnamic acid|CHEBI:193350|2-Propenoic acid| 3-(4-hydroxy-3-methoxyphenyl)-| (2Z)-|HMS3655P22|AKOS028109905|NCGC00094889-05|NCI60_002312|SY013625|DB-120370|3-(4-hydroxy-3-methoxyphenyl)-acrylic acid|NS00006133|(E\/Z)-Ferulic acid 1000 microg\/mL in Acetone|ferulic acid (trans-4-hydroxy-3-methoxycinnamic acid)|Q51617501|1-Acetate 3|5-Bis(4-chlorobenzoate)-2-deoxy-D-erythro-pentofuranose|Ferulic acid|cis-Ferulic acid|Sodium ferulate|ferulate|trans-ferulic acid|3-4-Hydroxy-3-(trideuteriomethoxy)phenylprop-2-enoic acid

>  <cas>  (80) 
nan

$$$$

     RDKit          2D

 45 51  0  0  0  0  0  0  0  0999 V2000
   -5.6193    4.0361    0.0000 C   0  0  0  0  0  0  0  0  0  0  0  0
   -5.6867    2.5376    0.0000 O   0  0  0  0  0  0  0  0  0  0  0  0
   -4.4227    1.7299    0.0000 C   0  0  0  0  0  0  0  0  0  0  0  0
   -3.0912    2.4208    0.0000 O   0  0  0  0  0  0  0  0  0  0  0  0
   -4.4901    0.2315    0.0000 C   0  0  0  0  0  0  0  0  0  0  0  0
   -3.1586    0.9223    0.0000 O   0  0  0  0  0  0  0  0  0  0  0  0
   -1.8946    0.1147    0.0000 C   0  0  0  0  0  0  0  0  0  0  0  0
   -1.9620   -1.3838    0.0000 C   0  0  0  0  0  0  0  0  0  0  0  0
   -3.2935   -2.0746    0.0000 C   0  0  0  0  0  0  0  0  0  0  0  0
   -3.3609   -3.5731    0.0000 O   0  0  0  0  0  0  0  0  0  0  0  0
   -4.5575   -1.2670    0.0000 C   0  0  0  0  0  0  0  0  0  0  0  0
   -5.8889   -1.9579    0.0000 C   0  0  0  0  0  0  0  0  0  0  0  0
   -5.9563   -3.4564    0.0000 O   0  0  0  0  0  0  0  0  0  0  0  0
   -7.1529   -1.1503    0.0000 C   0  0  0  0  0  0  0  0  0  0  0  0
   -7.0855    0.3482    0.0000 C   0  0  0  0  0  0  0  0  0  0  0  0
   -5.7541    1.0391    0.0000 C   0  0  0  0  0  0  0  0  0  0  0  0
   -5.9120    1.8204    0.0000 O   0  0  0  0  0  0  0  0  0  0  0  0
   -0.6980   -2.1914    0.0000 C   0  0  0  0  0  0  0  0  0  0  0  0
   -0.7654   -3.6899    0.0000 O   0  0  0  0  0  0  0  0  0  0  0  0
    0.6334   -1.5005    0.0000 C   0  0  0  0  0  0  0  0  0  0  0  0
    0.7008   -0.0020    0.0000 C   0  0  0  0  0  0  0  0  0  0  0  0
   -0.5632    0.8056    0.0000 C   0  0  0  0  0  0  0  0  0  0  0  0
   -0.7199    2.2974    0.0000 C   0  0  0  0  0  0  0  0  0  0  0  0
    0.3488    3.3500    0.0000 C   0  0  0  0  0  0  0  0  0  0  0  0
    1.8380    3.1708    0.0000 C   0  0  0  0  0  0  0  0  0  0  0  0
    2.6265    1.8947    0.0000 C   0  0  0  0  0  0  0  0  0  0  0  0
    2.1204    0.4827    0.0000 C   0  0  0  0  0  0  0  0  0  0  0  0
    1.5578    0.8421    0.0000 C   0  0  0  0  0  0  0  0  0  0  0  0
    1.9351   -0.6097    0.0000 C   0  0  0  0  0  0  0  0  0  0  0  0
    1.1529   -1.8896    0.0000 O   0  0  0  0  0  0  0  0  0  0  0  0
    3.3810   -1.0089    0.0000 C   0  0  0  0  0  0  0  0  0  0  0  0
    3.7583   -2.4606    0.0000 C   0  0  0  0  0  0  0  0  0  0  0  0
    2.6896   -3.5133    0.0000 O   0  0  0  0  0  0  0  0  0  0  0  0
    5.2042   -2.8598    0.0000 C   0  0  0  0  0  0  0  0  0  0  0  0
    6.2728   -1.8072    0.0000 C   0  0  0  0  0  0  0  0  0  0  0  0
    7.7188   -2.2063    0.0000 C   0  0  0  0  0  0  0  0  0  0  0  0
    5.8956   -0.3554    0.0000 C   0  0  0  0  0  0  0  0  0  0  0  0
    4.4496    0.0438    0.0000 C   0  0  0  0  0  0  0  0  0  0  0  0
    4.0724    1.4955    0.0000 C   0  0  0  0  0  0  0  0  0  0  0  0
    5.1410    2.5482    0.0000 O   0  0  0  0  0  0  0  0  0  0  0  0
    6.5869    2.1490    0.0000 C   0  0  0  0  0  0  0  0  0  0  0  0
    7.6556    3.2016    0.0000 C   0  0  0  0  0  0  0  0  0  0  0  0
    6.9642    0.6972    0.0000 O   0  0  0  0  0  0  0  0  0  0  0  0
    0.0686    1.0213    0.0000 C   0  0  0  0  0  0  0  0  0  0  0  0
   -0.7391   -0.2427    0.0000 O   0  0  0  0  0  0  0  0  0  0  0  0
  1  2  1  0
  2  3  1  0
  3  4  2  0
  5  3  1  1
  5  6  1  0
  6  7  1  0
  7  8  2  0
  8  9  1  0
  9 10  2  0
  9 11  1  0
 11 12  2  0
 12 13  1  0
 12 14  1  0
 14 15  2  0
 15 16  1  0
 16 17  1  1
  8 18  1  0
 18 19  1  0
 18 20  2  0
 20 21  1  0
 21 22  2  0
 22 23  1  0
 23 24  1  6
 24 25  2  0
 25 26  1  0
 26 27  1  6
 26 28  1  0
 28 29  2  0
 29 30  1  0
 29 31  1  0
 31 32  2  0
 32 33  1  0
 32 34  1  0
 34 35  2  0
 35 36  1  0
 35 37  1  0
 37 38  2  0
 38 39  1  0
 39 40  1  1
 40 41  1  0
 41 42  1  0
 41 43  2  0
 28 44  1  0
 44 45  2  0
 11  5  1  0
 27 21  1  0
 38 31  1  0
 16  5  1  0
 44 23  1  0
 22  7  1  0
 39 26  1  0
M  END
>  <identifier>  (81) 
CNP0274573.1

>  <canonical_smiles>  (81) 
COC(=O)[C@@]12OC3=C(C(=O)C1=C(O)C=C[C@H]2O)C(O)=CC1=C3[C@@H]2C=C[C@]3(C1)C(=C(O)C1=C(O)C=C(C)C=C1[C@@H]3OC(C)=O)C2=O

>  <standard_inchi>  (81) 
InChI=1S/C33H26O12/c1-12-8-16-22(18(36)9-12)27(40)25-26(39)15-6-7-32(25,30(16)44-13(2)34)11-14-10-19(37)23-28(41)24-17(35)4-5-20(38)33(24,31(42)43-3)45-29(23)21(14)15/h4-10,15,20,30,35-38,40H,11H2,1-3H3/t15-,20+,30-,32-,33-/m0/s1

>  <standard_inchi_key>  (81) 
CJJVWWCXCQUGER-UAZACNSMSA-N

>  <name>  (81) 
Acremoxanthone C

>  <iupac_name>  (81) 
methyl (1~{R},12~{R},13~{R},17~{S},27~{S})-27-acetoxy-5,9,12,20,22-pentahydroxy-24-methyl-7,18-dioxo-14-oxaheptacyclo[15.10.2.0^{1,19}.0^{3,16}.0^{6,15}.0^{8,13}.0^{21,26}]nonacosa-3(16),4,6(15),8,10,19,21,23,25,28-decaene-13-carboxylate

>  <annotation_level>  (81) 
5

>  <total_atom_count>  (81) 
71

>  <heavy_atom_count>  (81) 
45

>  <molecular_weight>  (81) 
614.56

>  <exact_molecular_weight>  (81) 
614.14243

>  <molecular_formula>  (81) 
C33H26O12

>  <alogp>  (81) 
2.99

>  <topological_polar_surface_area>  (81) 
197.12

>  <rotatable_bond_count>  (81) 
2

>  <hydrogen_bond_acceptors>  (81) 
12

>  <hydrogen_bond_donors>  (81) 
5

>  <hydrogen_bond_acceptors_lipinski>  (81) 
12

>  <hydrogen_bond_donors_lipinski>  (81) 
5

>  <lipinski_rule_of_five_violations>  (81) 
2

>  <aromatic_rings_count>  (81) 
2

>  <qed_drug_likeliness>  (81) 
0.25

>  <formal_charge>  (81) 
0

>  <fractioncsp3>  (81) 
0.27

>  <number_of_minimal_rings>  (81) 
8

>  <van_der_walls_volume>  (81) 
501.31

>  <contains_sugar>  (81) 
False

>  <contains_ring_sugars>  (81) 
False

>  <contains_linear_sugars>  (81) 
False

>  <murcko_framework>  (81) 
O1c2c(ccc3c2C4C=CC5(C(=Cc6ccccc6C5)C4)C3)CC7=CC=CCC17

>  <np_likeness>  (81) 
2.56

>  <chemical_class>  (81) 
Benzopyrans

>  <chemical_sub_class>  (81) 
1-benzopyrans

>  <chemical_super_class>  (81) 
Organoheterocyclic compounds

>  <direct_parent_classification>  (81) 
Xanthones

>  <np_classifier_pathway>  (81) 
Polyketides

>  <np_classifier_superclass>  (81) 
Polycyclic aromatic polyketides

>  <np_classifier_class>  (81) 
Anthraquinones and anthrones

>  <np_classifier_is_glycoside>  (81) 
False

>  <organisms>  (81) 
Purpureocillium lilacinum

>  <collections>  (81) 
BIOFACQUIM|Latin America dataset|NPASS

>  <dois>  (81) 
10.1021/np4002477

>  <synonyms>  (81) 
Acremoxanthone C

>  <cas>  (81) 
nan

$$$$

     RDKit          2D

 38 42  0  0  0  0  0  0  0  0999 V2000
  -10.2852    1.7370    0.0000 C   0  0  0  0  0  0  0  0  0  0  0  0
   -9.1628    0.7419    0.0000 O   0  0  0  0  0  0  0  0  0  0  0  0
   -7.7399    1.2164    0.0000 C   0  0  0  0  0  0  0  0  0  0  0  0
   -6.5196    0.3441    0.0000 C   0  0  0  0  0  0  0  0  0  0  0  0
   -5.3129    1.2351    0.0000 C   0  0  0  0  0  0  0  0  0  0  0  0
   -3.8828    0.7825    0.0000 C   0  0  0  0  0  0  0  0  0  0  0  0
   -3.5597   -0.6823    0.0000 C   0  0  0  0  0  0  0  0  0  0  0  0
   -1.7541   -1.7256    0.0000 C   0  0  0  0  0  0  0  0  0  0  0  0
   -1.9322    0.3521    0.0000 C   0  0  0  0  0  0  0  0  0  0  0  0
   -0.6309   -1.0710    0.0000 C   0  0  0  0  0  0  0  0  0  0  0  0
    0.0631    0.2588    0.0000 C   0  0  0  0  0  0  0  0  0  0  0  0
    1.5617    0.3227    0.0000 C   0  0  0  0  0  0  0  0  0  0  0  0
    2.2558    1.6525    0.0000 O   0  0  0  0  0  0  0  0  0  0  0  0
    3.7544    1.7163    0.0000 C   0  0  0  0  0  0  0  0  0  0  0  0
    4.5590    0.4504    0.0000 O   0  0  0  0  0  0  0  0  0  0  0  0
    6.0577    0.5143    0.0000 C   0  0  0  0  0  0  0  0  0  0  0  0
    6.8623   -0.7517    0.0000 C   0  0  0  0  0  0  0  0  0  0  0  0
    6.1683   -2.0814    0.0000 O   0  0  0  0  0  0  0  0  0  0  0  0
    6.7517    1.8441    0.0000 C   0  0  0  0  0  0  0  0  0  0  0  0
    8.2503    1.9079    0.0000 O   0  0  0  0  0  0  0  0  0  0  0  0
    5.9470    3.1100    0.0000 C   0  0  0  0  0  0  0  0  0  0  0  0
    6.6411    4.4398    0.0000 O   0  0  0  0  0  0  0  0  0  0  0  0
    4.4484    3.0461    0.0000 C   0  0  0  0  0  0  0  0  0  0  0  0
    3.6438    4.3121    0.0000 O   0  0  0  0  0  0  0  0  0  0  0  0
    2.3664   -0.9432    0.0000 C   0  0  0  0  0  0  0  0  0  0  0  0
    1.6724   -2.2730    0.0000 C   0  0  0  0  0  0  0  0  0  0  0  0
    2.1962   -3.6786    0.0000 C   0  0  0  0  0  0  0  0  0  0  0  0
    3.6412   -4.0810    0.0000 O   0  0  0  0  0  0  0  0  0  0  0  0
    1.0213   -4.6111    0.0000 O   0  0  0  0  0  0  0  0  0  0  0  0
   -0.2287   -3.7819    0.0000 C   0  0  0  0  0  0  0  0  0  0  0  0
    0.1737   -2.3369    0.0000 C   0  0  0  0  0  0  0  0  0  0  0  0
   -0.8958   -3.0759    0.0000 C   0  0  0  0  0  0  0  0  0  0  0  0
   -1.6951   -3.1100    0.0000 C   0  0  0  0  0  0  0  0  0  0  0  0
   -2.1242   -2.4348    0.0000 C   0  0  0  0  0  0  0  0  0  0  0  0
   -4.3222   -2.5285    0.0000 C   0  0  0  0  0  0  0  0  0  0  0  0
   -5.7874    2.6580    0.0000 C   0  0  0  0  0  0  0  0  0  0  0  0
   -4.9150    3.8783    0.0000 O   0  0  0  0  0  0  0  0  0  0  0  0
   -7.2873    2.6465    0.0000 O   0  0  0  0  0  0  0  0  0  0  0  0
  1  2  1  0
  3  2  1  1
  3  4  1  0
  4  5  2  0
  5  6  1  0
  6  7  1  0
  7  8  1  0
  8  9  1  1
  8 10  1  0
 10 11  1  0
 11 12  1  0
 12 13  1  6
 14 13  1  1
 14 15  1  0
 15 16  1  0
 16 17  1  1
 17 18  1  0
 16 19  1  0
 19 20  1  6
 19 21  1  0
 21 22  1  1
 21 23  1  0
 23 24  1  6
 12 25  1  0
 25 26  2  0
 26 27  1  0
 27 28  2  0
 27 29  1  0
 29 30  1  0
 31 30  1  1
 31 32  1  0
 32 33  1  0
 33 34  1  0
 34 35  1  1
  5 36  1  0
 36 37  2  0
 36 38  1  0
 38  3  1  0
 34  8  1  0
 31 10  1  0
 23 14  1  0
 31 26  1  0
M  END
>  <identifier>  (82) 
CNP0080287.1

>  <canonical_smiles>  (82) 
CO[C@@H]1C=C(CC[C@]2(C)C3C[C@H](O[C@@H]4O[C@H](CO)[C@@H](O)[C@H](O)[C@H]4O)C=C4C(=O)OC[C@]43CC[C@H]2C)C(=O)O1

>  <standard_inchi>  (82) 
InChI=1S/C27H38O11/c1-13-4-7-27-12-35-24(33)16(27)9-15(36-25-22(31)21(30)20(29)17(11-28)37-25)10-18(27)26(13,2)6-5-14-8-19(34-3)38-23(14)32/h8-9,13,15,17-22,25,28-31H,4-7,10-12H2,1-3H3/t13-,15-,17-,18?,19+,20-,21+,22-,25-,26+,27-/m1/s1

>  <standard_inchi_key>  (82) 
CETCIHSCOIXIKA-ACIDHAGOSA-N

>  <name>  (82) 
nan

>  <iupac_name>  (82) 
(5~{S},7~{S},8~{R},10~{a}~{S})-7-[2-[(2~{S})-2-methoxy-5-oxo-2~{H}-furan-4-yl]ethyl]-7,8-dimethyl-5-[(2~{R},3~{R},4~{S},5~{S},6~{R})-3,4,5-trihydroxy-6-(hydroxymethyl)tetrahydropyran-2-yl]oxy-5,6,6~{a},8,9,10-hexahydro-1~{H}-benzo[d]isobenzofuran-3-one

>  <annotation_level>  (82) 
5

>  <total_atom_count>  (82) 
76

>  <heavy_atom_count>  (82) 
38

>  <molecular_weight>  (82) 
538.59

>  <exact_molecular_weight>  (82) 
538.24141

>  <molecular_formula>  (82) 
C27H38O11

>  <alogp>  (82) 
0.33

>  <topological_polar_surface_area>  (82) 
161.21

>  <rotatable_bond_count>  (82) 
7

>  <hydrogen_bond_acceptors>  (82) 
11

>  <hydrogen_bond_donors>  (82) 
4

>  <hydrogen_bond_acceptors_lipinski>  (82) 
11

>  <hydrogen_bond_donors_lipinski>  (82) 
4

>  <lipinski_rule_of_five_violations>  (82) 
2

>  <aromatic_rings_count>  (82) 
0

>  <qed_drug_likeliness>  (82) 
0.33

>  <formal_charge>  (82) 
0

>  <fractioncsp3>  (82) 
0.78

>  <number_of_minimal_rings>  (82) 
5

>  <van_der_walls_volume>  (82) 
475.51

>  <contains_sugar>  (82) 
True

>  <contains_ring_sugars>  (82) 
True

>  <contains_linear_sugars>  (82) 
False

>  <murcko_framework>  (82) 
O1CC=C(C1)CCC2CCCC34C(=CC(OC5OCCCC5)CC23)COC4

>  <np_likeness>  (82) 
3.28

>  <chemical_class>  (82) 
Lactones

>  <chemical_sub_class>  (82) 
Gamma butyrolactones

>  <chemical_super_class>  (82) 
Organoheterocyclic compounds

>  <direct_parent_classification>  (82) 
Gamma butyrolactones

>  <np_classifier_pathway>  (82) 
Terpenoids

>  <np_classifier_superclass>  (82) 
Diterpenoids

>  <np_classifier_class>  (82) 
Colensane and Clerodane diterpenoids

>  <np_classifier_is_glycoside>  (82) 
True

>  <organisms>  (82) 
Salvia circinata

>  <collections>  (82) 
BIOFACQUIM|Latin America dataset

>  <dois>  (82) 
10.1021/acs.jnatprod.7b00155

>  <synonyms>  (82) 
(2S 5S 8R 9R 10R 15S)-2-(O-b-D-glucopyranosyl)neocleroda-15-methoxy-3 13-diene-14 15;18 19-diolide

>  <cas>  (82) 
nan

$$$$

     RDKit          2D

 24 26  0  0  0  0  0  0  0  0999 V2000
   -5.1333   -0.4856    0.0000 C   0  0  0  0  0  0  0  0  0  0  0  0
   -4.9047    0.9968    0.0000 C   0  0  0  0  0  0  0  0  0  0  0  0
   -3.5066    1.5401    0.0000 C   0  0  0  0  0  0  0  0  0  0  0  0
   -3.2780    3.0226    0.0000 C   0  0  0  0  0  0  0  0  0  0  0  0
   -2.3370    0.6009    0.0000 C   0  0  0  0  0  0  0  0  0  0  0  0
   -2.7446   -0.8426    0.0000 O   0  0  0  0  0  0  0  0  0  0  0  0
   -0.9388    1.1442    0.0000 O   0  0  0  0  0  0  0  0  0  0  0  0
    0.2307    0.2050    0.0000 C   0  0  0  0  0  0  0  0  0  0  0  0
    0.0022   -1.2775    0.0000 C   0  0  0  0  0  0  0  0  0  0  0  0
    1.1717   -2.2167    0.0000 C   0  0  0  0  0  0  0  0  0  0  0  0
    0.6399   -3.6192    0.0000 O   0  0  0  0  0  0  0  0  0  0  0  0
   -0.8583   -3.5469    0.0000 C   0  0  0  0  0  0  0  0  0  0  0  0
   -1.2525   -2.0996    0.0000 C   0  0  0  0  0  0  0  0  0  0  0  0
   -2.7094   -1.7427    0.0000 C   0  0  0  0  0  0  0  0  0  0  0  0
    2.5699   -1.6734    0.0000 C   0  0  0  0  0  0  0  0  0  0  0  0
    3.7395   -2.6126    0.0000 O   0  0  0  0  0  0  0  0  0  0  0  0
    2.7985   -0.1909    0.0000 C   0  0  0  0  0  0  0  0  0  0  0  0
    4.1966    0.3524    0.0000 C   0  0  0  0  0  0  0  0  0  0  0  0
    4.4252    1.8349    0.0000 C   0  0  0  0  0  0  0  0  0  0  0  0
    3.2556    2.7741    0.0000 C   0  0  0  0  0  0  0  0  0  0  0  0
    1.8575    2.2308    0.0000 C   0  0  0  0  0  0  0  0  0  0  0  0
    0.6879    3.1700    0.0000 C   0  0  0  0  0  0  0  0  0  0  0  0
    1.6289    0.7483    0.0000 C   0  0  0  0  0  0  0  0  0  0  0  0
    0.4593    1.6875    0.0000 C   0  0  0  0  0  0  0  0  0  0  0  0
  1  2  1  0
  2  3  2  0
  3  4  1  0
  3  5  1  0
  5  6  2  0
  5  7  1  0
  8  7  1  1
  8  9  1  0
  9 10  2  0
 10 11  1  0
 11 12  1  0
 12 13  2  0
 13 14  1  0
 10 15  1  0
 15 16  2  0
 15 17  1  0
 17 18  2  0
 18 19  1  0
 19 20  1  0
 20 21  1  0
 21 22  1  1
 21 23  1  0
 23 24  1  1
 23  8  1  0
 13  9  1  0
 23 17  1  0
M  END
>  <identifier>  (83) 
CNP0210127.1

>  <canonical_smiles>  (83) 
C/C=C(/C)C(=O)O[C@@H]1C2=C(OC=C2C)C(=O)C2=CCC[C@H](C)[C@]21C

>  <standard_inchi>  (83) 
InChI=1S/C20H24O4/c1-6-11(2)19(22)24-18-15-12(3)10-23-17(15)16(21)14-9-7-8-13(4)20(14,18)5/h6,9-10,13,18H,7-8H2,1-5H3/b11-6-/t13-,18+,20+/m0/s1

>  <standard_inchi_key>  (83) 
ZGPJMFUBGMSEDV-OLQHVUIGSA-N

>  <name>  (83) 
23790-83-2

>  <iupac_name>  (83) 
[(4~{S},4~{a}~{R},5~{S})-3,4~{a},5-trimethyl-9-oxo-4,5,6,7-tetrahydrobenzo[f]benzofuran-4-yl] (~{Z})-2-methylbut-2-enoate

>  <annotation_level>  (83) 
5

>  <total_atom_count>  (83) 
48

>  <heavy_atom_count>  (83) 
24

>  <molecular_weight>  (83) 
328.41

>  <exact_molecular_weight>  (83) 
328.16746

>  <molecular_formula>  (83) 
C20H24O4

>  <alogp>  (83) 
4.70

>  <topological_polar_surface_area>  (83) 
56.51

>  <rotatable_bond_count>  (83) 
2

>  <hydrogen_bond_acceptors>  (83) 
4

>  <hydrogen_bond_donors>  (83) 
0

>  <hydrogen_bond_acceptors_lipinski>  (83) 
4

>  <hydrogen_bond_donors_lipinski>  (83) 
0

>  <lipinski_rule_of_five_violations>  (83) 
0

>  <aromatic_rings_count>  (83) 
1

>  <qed_drug_likeliness>  (83) 
0.58

>  <formal_charge>  (83) 
0

>  <fractioncsp3>  (83) 
0.50

>  <number_of_minimal_rings>  (83) 
3

>  <van_der_walls_volume>  (83) 
308.90

>  <contains_sugar>  (83) 
False

>  <contains_ring_sugars>  (83) 
False

>  <contains_linear_sugars>  (83) 
False

>  <murcko_framework>  (83) 
o1ccc2c1CC3=CCCCC3C2

>  <np_likeness>  (83) 
3.02

>  <chemical_class>  (83) 
Prenol lipids

>  <chemical_sub_class>  (83) 
Sesquiterpenoids

>  <chemical_super_class>  (83) 
Lipids and lipid-like molecules

>  <direct_parent_classification>  (83) 
Eremophilane, 8,9-secoeremophilane and furoeremophilane sesquiterpenoids

>  <np_classifier_pathway>  (83) 
Terpenoids

>  <np_classifier_superclass>  (83) 
Sesquiterpenoids

>  <np_classifier_class>  (83) 
Eremophilane sesquiterpenoids

>  <np_classifier_is_glycoside>  (83) 
False

>  <organisms>  (83) 
Adenostyles alliariae|Packera bellidifolia|Psacalium radulifolium|Rhododendron dauricum|Senecio elegans|Zanthoxylum integrifoliolum

>  <collections>  (83) 
Australian natural products|BIOFACQUIM|CMAUP (cCollective molecular activities of useful plants)|KNApSaCK|Latin America dataset|NPASS|Super Natural II

>  <dois>  (83) 
10.1002/cber.19741070913|10.1021/np2009412

>  <synonyms>  (83) 
Eremophila-1(10)|7|11-trien-9-one| 8|12-epoxy-6beta-hydroxy-| 2-methylcrotonate| (Z)-|Neoadenostylone

>  <cas>  (83) 
nan

$$$$

     RDKit          2D

 24 26  0  0  0  0  0  0  0  0999 V2000
   -5.1333   -0.4856    0.0000 C   0  0  0  0  0  0  0  0  0  0  0  0
   -4.9047    0.9968    0.0000 C   0  0  0  0  0  0  0  0  0  0  0  0
   -3.5066    1.5401    0.0000 C   0  0  0  0  0  0  0  0  0  0  0  0
   -3.2780    3.0226    0.0000 C   0  0  0  0  0  0  0  0  0  0  0  0
   -2.3370    0.6009    0.0000 C   0  0  0  0  0  0  0  0  0  0  0  0
   -2.7446   -0.8426    0.0000 O   0  0  0  0  0  0  0  0  0  0  0  0
   -0.9388    1.1442    0.0000 O   0  0  0  0  0  0  0  0  0  0  0  0
    0.2307    0.2050    0.0000 C   0  0  0  0  0  0  0  0  0  0  0  0
    0.0022   -1.2775    0.0000 C   0  0  0  0  0  0  0  0  0  0  0  0
    1.1717   -2.2167    0.0000 C   0  0  0  0  0  0  0  0  0  0  0  0
    0.6399   -3.6192    0.0000 O   0  0  0  0  0  0  0  0  0  0  0  0
   -0.8583   -3.5469    0.0000 C   0  0  0  0  0  0  0  0  0  0  0  0
   -1.2525   -2.0996    0.0000 C   0  0  0  0  0  0  0  0  0  0  0  0
   -2.7094   -1.7427    0.0000 C   0  0  0  0  0  0  0  0  0  0  0  0
    2.5699   -1.6734    0.0000 C   0  0  0  0  0  0  0  0  0  0  0  0
    3.7395   -2.6126    0.0000 O   0  0  0  0  0  0  0  0  0  0  0  0
    2.7985   -0.1909    0.0000 C   0  0  0  0  0  0  0  0  0  0  0  0
    4.1966    0.3524    0.0000 C   0  0  0  0  0  0  0  0  0  0  0  0
    4.4252    1.8349    0.0000 C   0  0  0  0  0  0  0  0  0  0  0  0
    3.2556    2.7741    0.0000 C   0  0  0  0  0  0  0  0  0  0  0  0
    1.8575    2.2308    0.0000 C   0  0  0  0  0  0  0  0  0  0  0  0
    0.6879    3.1700    0.0000 C   0  0  0  0  0  0  0  0  0  0  0  0
    1.6289    0.7483    0.0000 C   0  0  0  0  0  0  0  0  0  0  0  0
    0.4593    1.6875    0.0000 C   0  0  0  0  0  0  0  0  0  0  0  0
  1  2  1  0
  2  3  2  0
  3  4  1  0
  3  5  1  0
  5  6  2  0
  5  7  1  0
  8  7  1  6
  8  9  1  0
  9 10  2  0
 10 11  1  0
 11 12  1  0
 12 13  2  0
 13 14  1  0
 10 15  1  0
 15 16  2  0
 15 17  1  0
 17 18  2  0
 18 19  1  0
 19 20  1  0
 20 21  1  0
 21 22  1  1
 21 23  1  0
 23 24  1  1
 23  8  1  0
 13  9  1  0
 23 17  1  0
M  END
>  <identifier>  (84) 
CNP0210127.2

>  <canonical_smiles>  (84) 
C/C=C(/C)C(=O)O[C@H]1C2=C(OC=C2C)C(=O)C2=CCC[C@H](C)[C@]21C

>  <standard_inchi>  (84) 
InChI=1S/C20H24O4/c1-6-11(2)19(22)24-18-15-12(3)10-23-17(15)16(21)14-9-7-8-13(4)20(14,18)5/h6,9-10,13,18H,7-8H2,1-5H3/b11-6-/t13-,18-,20+/m0/s1

>  <standard_inchi_key>  (84) 
ZGPJMFUBGMSEDV-CORQQEAWSA-N

>  <name>  (84) 
nan

>  <iupac_name>  (84) 
[(4~{R},4~{a}~{R},5~{S})-3,4~{a},5-trimethyl-9-oxo-4,5,6,7-tetrahydrobenzo[f]benzofuran-4-yl] (~{Z})-2-methylbut-2-enoate

>  <annotation_level>  (84) 
5

>  <total_atom_count>  (84) 
48

>  <heavy_atom_count>  (84) 
24

>  <molecular_weight>  (84) 
328.41

>  <exact_molecular_weight>  (84) 
328.16746

>  <molecular_formula>  (84) 
C20H24O4

>  <alogp>  (84) 
4.70

>  <topological_polar_surface_area>  (84) 
56.51

>  <rotatable_bond_count>  (84) 
2

>  <hydrogen_bond_acceptors>  (84) 
4

>  <hydrogen_bond_donors>  (84) 
0

>  <hydrogen_bond_acceptors_lipinski>  (84) 
4

>  <hydrogen_bond_donors_lipinski>  (84) 
0

>  <lipinski_rule_of_five_violations>  (84) 
0

>  <aromatic_rings_count>  (84) 
1

>  <qed_drug_likeliness>  (84) 
0.58

>  <formal_charge>  (84) 
0

>  <fractioncsp3>  (84) 
0.50

>  <number_of_minimal_rings>  (84) 
3

>  <van_der_walls_volume>  (84) 
310.02

>  <contains_sugar>  (84) 
False

>  <contains_ring_sugars>  (84) 
False

>  <contains_linear_sugars>  (84) 
False

>  <murcko_framework>  (84) 
o1ccc2c1CC3=CCCCC3C2

>  <np_likeness>  (84) 
3.02

>  <chemical_class>  (84) 
Prenol lipids

>  <chemical_sub_class>  (84) 
Sesquiterpenoids

>  <chemical_super_class>  (84) 
Lipids and lipid-like molecules

>  <direct_parent_classification>  (84) 
Eremophilane, 8,9-secoeremophilane and furoeremophilane sesquiterpenoids

>  <np_classifier_pathway>  (84) 
Terpenoids

>  <np_classifier_superclass>  (84) 
Sesquiterpenoids

>  <np_classifier_class>  (84) 
Eremophilane sesquiterpenoids

>  <np_classifier_is_glycoside>  (84) 
False

>  <organisms>  (84) 
Packera bellidifolia

>  <collections>  (84) 
BIOFACQUIM|Latin America dataset

>  <dois>  (84) 
10.1021/np2009412

>  <synonyms>  (84) 
Epineoadenostylone

>  <cas>  (84) 
nan

$$$$

     RDKit          2D

 24 26  0  0  0  0  0  0  0  0999 V2000
   -5.3298    2.4271    0.0000 C   0  0  0  0  0  0  0  0  0  0  0  0
   -3.9501    1.8387    0.0000 C   0  0  0  0  0  0  0  0  0  0  0  0
   -3.7697    0.3496    0.0000 C   0  0  0  0  0  0  0  0  0  0  0  0
   -4.9691   -0.5512    0.0000 C   0  0  0  0  0  0  0  0  0  0  0  0
   -2.3899   -0.2388    0.0000 C   0  0  0  0  0  0  0  0  0  0  0  0
   -2.3924   -1.7388    0.0000 O   0  0  0  0  0  0  0  0  0  0  0  0
   -1.1905    0.6619    0.0000 O   0  0  0  0  0  0  0  0  0  0  0  0
    0.1893    0.0736    0.0000 C   0  0  0  0  0  0  0  0  0  0  0  0
    0.3697   -1.4155    0.0000 C   0  0  0  0  0  0  0  0  0  0  0  0
    1.7495   -2.0039    0.0000 C   0  0  0  0  0  0  0  0  0  0  0  0
    1.6163   -3.4980    0.0000 O   0  0  0  0  0  0  0  0  0  0  0  0
    0.1542   -3.8330    0.0000 C   0  0  0  0  0  0  0  0  0  0  0  0
   -0.6163   -2.5460    0.0000 C   0  0  0  0  0  0  0  0  0  0  0  0
   -2.1154   -2.5959    0.0000 C   0  0  0  0  0  0  0  0  0  0  0  0
    2.9489   -1.1032    0.0000 C   0  0  0  0  0  0  0  0  0  0  0  0
    4.3287   -1.6915    0.0000 O   0  0  0  0  0  0  0  0  0  0  0  0
    2.7685    0.3860    0.0000 C   0  0  0  0  0  0  0  0  0  0  0  0
    3.9680    1.2867    0.0000 C   0  0  0  0  0  0  0  0  0  0  0  0
    3.7876    2.7758    0.0000 C   0  0  0  0  0  0  0  0  0  0  0  0
    2.4078    3.3642    0.0000 C   0  0  0  0  0  0  0  0  0  0  0  0
    1.2084    2.4634    0.0000 C   0  0  0  0  0  0  0  0  0  0  0  0
   -0.1714    3.0518    0.0000 C   0  0  0  0  0  0  0  0  0  0  0  0
    1.3888    0.9743    0.0000 C   0  0  0  0  0  0  0  0  0  0  0  0
    0.0090    1.5627    0.0000 C   0  0  0  0  0  0  0  0  0  0  0  0
  1  2  1  0
  2  3  1  0
  3  4  1  1
  3  5  1  0
  5  6  2  0
  5  7  1  0
  8  7  1  6
  8  9  1  0
  9 10  2  0
 10 11  1  0
 11 12  1  0
 12 13  2  0
 13 14  1  0
 10 15  1  0
 15 16  2  0
 15 17  1  0
 17 18  2  0
 18 19  1  0
 19 20  1  0
 20 21  1  0
 21 22  1  1
 21 23  1  0
 23 24  1  1
 23  8  1  0
 13  9  1  0
 23 17  1  0
M  END
>  <identifier>  (85) 
CNP0161767.1

>  <canonical_smiles>  (85) 
CC[C@H](C)C(=O)O[C@H]1C2=C(OC=C2C)C(=O)C2=CCC[C@H](C)[C@]21C

>  <standard_inchi>  (85) 
InChI=1S/C20H26O4/c1-6-11(2)19(22)24-18-15-12(3)10-23-17(15)16(21)14-9-7-8-13(4)20(14,18)5/h9-11,13,18H,6-8H2,1-5H3/t11-,13-,18-,20+/m0/s1

>  <standard_inchi_key>  (85) 
PUBUQGJOCRORHJ-TWSVYZDPSA-N

>  <name>  (85) 
nan

>  <iupac_name>  (85) 
[(4~{R},4~{a}~{R},5~{S})-3,4~{a},5-trimethyl-9-oxo-4,5,6,7-tetrahydrobenzo[f]benzofuran-4-yl] (2~{S})-2-methylbutanoate

>  <annotation_level>  (85) 
5

>  <total_atom_count>  (85) 
50

>  <heavy_atom_count>  (85) 
24

>  <molecular_weight>  (85) 
330.42

>  <exact_molecular_weight>  (85) 
330.18311

>  <molecular_formula>  (85) 
C20H26O4

>  <alogp>  (85) 
4.78

>  <topological_polar_surface_area>  (85) 
56.51

>  <rotatable_bond_count>  (85) 
3

>  <hydrogen_bond_acceptors>  (85) 
4

>  <hydrogen_bond_donors>  (85) 
0

>  <hydrogen_bond_acceptors_lipinski>  (85) 
4

>  <hydrogen_bond_donors_lipinski>  (85) 
0

>  <lipinski_rule_of_five_violations>  (85) 
0

>  <aromatic_rings_count>  (85) 
1

>  <qed_drug_likeliness>  (85) 
0.75

>  <formal_charge>  (85) 
0

>  <fractioncsp3>  (85) 
0.60

>  <number_of_minimal_rings>  (85) 
3

>  <van_der_walls_volume>  (85) 
314.69

>  <contains_sugar>  (85) 
False

>  <contains_ring_sugars>  (85) 
False

>  <contains_linear_sugars>  (85) 
False

>  <murcko_framework>  (85) 
o1ccc2c1CC3=CCCCC3C2

>  <np_likeness>  (85) 
2.59

>  <chemical_class>  (85) 
Prenol lipids

>  <chemical_sub_class>  (85) 
Sesquiterpenoids

>  <chemical_super_class>  (85) 
Lipids and lipid-like molecules

>  <direct_parent_classification>  (85) 
Eremophilane, 8,9-secoeremophilane and furoeremophilane sesquiterpenoids

>  <np_classifier_pathway>  (85) 
Terpenoids

>  <np_classifier_superclass>  (85) 
Sesquiterpenoids

>  <np_classifier_class>  (85) 
Eremophilane sesquiterpenoids

>  <np_classifier_is_glycoside>  (85) 
False

>  <organisms>  (85) 
Packera bellidifolia

>  <collections>  (85) 
BIOFACQUIM|Latin America dataset

>  <dois>  (85) 
10.1021/np2009412

>  <synonyms>  (85) 
6-(2-a-methylbutanoyloxy)-9-oxo-1(10)-furanoeremophilene

>  <cas>  (85) 
nan

$$$$

     RDKit          2D

 20 22  0  0  0  0  0  0  0  0999 V2000
   -5.2518   -0.8987    0.0000 C   0  0  0  0  0  0  0  0  0  0  0  0
   -3.8601   -1.4582    0.0000 O   0  0  0  0  0  0  0  0  0  0  0  0
   -2.6797   -0.5327    0.0000 C   0  0  0  0  0  0  0  0  0  0  0  0
   -2.8909    0.9523    0.0000 C   0  0  0  0  0  0  0  0  0  0  0  0
   -1.7105    1.8778    0.0000 C   0  0  0  0  0  0  0  0  0  0  0  0
   -1.9217    3.3629    0.0000 O   0  0  0  0  0  0  0  0  0  0  0  0
   -0.3187    1.3182    0.0000 C   0  0  0  0  0  0  0  0  0  0  0  0
   -0.1075   -0.1668    0.0000 C   0  0  0  0  0  0  0  0  0  0  0  0
   -1.2879   -1.0923    0.0000 C   0  0  0  0  0  0  0  0  0  0  0  0
   -1.0767   -2.5773    0.0000 C   0  0  0  0  0  0  0  0  0  0  0  0
    0.3151   -3.1369    0.0000 O   0  0  0  0  0  0  0  0  0  0  0  0
    1.4955   -2.2114    0.0000 C   0  0  0  0  0  0  0  0  0  0  0  0
    2.8872   -2.7710    0.0000 O   0  0  0  0  0  0  0  0  0  0  0  0
    1.2842   -0.7264    0.0000 C   0  0  0  0  0  0  0  0  0  0  0  0
    2.4647    0.1991    0.0000 C   0  0  0  0  0  0  0  0  0  0  0  0
    3.8564   -0.3604    0.0000 O   0  0  0  0  0  0  0  0  0  0  0  0
    5.0369    0.5651    0.0000 C   0  0  0  0  0  0  0  0  0  0  0  0
    2.2534    1.6842    0.0000 C   0  0  0  0  0  0  0  0  0  0  0  0
    0.8617    2.2437    0.0000 C   0  0  0  0  0  0  0  0  0  0  0  0
    0.6504    3.7288    0.0000 C   0  0  0  0  0  0  0  0  0  0  0  0
  1  2  1  0
  2  3  1  0
  3  4  2  0
  4  5  1  0
  5  6  2  0
  5  7  1  0
  7  8  2  0
  8  9  1  0
  9 10  2  0
 10 11  1  0
 11 12  1  0
 12 13  2  0
 12 14  1  0
 14 15  2  0
 15 16  1  0
 16 17  1  0
 15 18  1  0
 18 19  2  0
 19 20  1  0
  9  3  1  0
 19  7  1  0
 14  8  1  0
M  END
>  <identifier>  (86) 
CNP0165163.0

>  <canonical_smiles>  (86) 
COC1=CC(=O)C2=C3C1=COC(=O)C3=C(OC)C=C2C

>  <standard_inchi>  (86) 
InChI=1S/C15H12O5/c1-7-4-11(19-3)14-13-8(6-20-15(14)17)10(18-2)5-9(16)12(7)13/h4-6H,1-3H3

>  <standard_inchi_key>  (86) 
MFIBJICNTUTPCP-UHFFFAOYSA-N

>  <name>  (86) 
Corymbiferone C

>  <iupac_name>  (86) 
6,12-dimethoxy-10-methyl-3-oxatricyclo[7.3.1.0^{5,13}]trideca-1(12),4,6,9(13),10-pentaene-2,8-dione

>  <annotation_level>  (86) 
5

>  <total_atom_count>  (86) 
32

>  <heavy_atom_count>  (86) 
20

>  <molecular_weight>  (86) 
272.26

>  <exact_molecular_weight>  (86) 
272.06847

>  <molecular_formula>  (86) 
C15H12O5

>  <alogp>  (86) 
2.29

>  <topological_polar_surface_area>  (86) 
65.74

>  <rotatable_bond_count>  (86) 
2

>  <hydrogen_bond_acceptors>  (86) 
5

>  <hydrogen_bond_donors>  (86) 
0

>  <hydrogen_bond_acceptors_lipinski>  (86) 
5

>  <hydrogen_bond_donors_lipinski>  (86) 
0

>  <lipinski_rule_of_five_violations>  (86) 
0

>  <aromatic_rings_count>  (86) 
2

>  <qed_drug_likeliness>  (86) 
0.84

>  <formal_charge>  (86) 
0

>  <fractioncsp3>  (86) 
0.20

>  <number_of_minimal_rings>  (86) 
3

>  <van_der_walls_volume>  (86) 
228.84

>  <contains_sugar>  (86) 
False

>  <contains_ring_sugars>  (86) 
False

>  <contains_linear_sugars>  (86) 
False

>  <murcko_framework>  (86) 
O1C=C2C=CCc3cccc(c23)C1

>  <np_likeness>  (86) 
1.42

>  <chemical_class>  (86) 
Isocoumarins and derivatives

>  <chemical_sub_class>  (86) 
Isocoumarins and derivatives

>  <chemical_super_class>  (86) 
Phenylpropanoids and polyketides

>  <direct_parent_classification>  (86) 
Isocoumarins and derivatives

>  <np_classifier_pathway>  (86) 
Shikimates and Phenylpropanoids

>  <np_classifier_superclass>  (86) 
Coumarins

>  <np_classifier_class>  (86) 
Isocoumarins

>  <np_classifier_is_glycoside>  (86) 
False

>  <organisms>  (86) 
Sporormiella minimoides

>  <collections>  (86) 
BIOFACQUIM|Latin America dataset|NPAtlas|UNPD (Universal Natural Products Database)

>  <dois>  (86) 
10.1016/j.phytochem.2013.09.006

>  <synonyms>  (86) 
CHEBI:200005|6|12-dimethoxy-10-methyl-3-oxatricyclo7.3.1.05|13trideca-1(12)|4|6|9(13)|10-pentaene-2|8-dione|Corymbiferone C

>  <cas>  (86) 
nan

$$$$

     RDKit          2D

 18 20  0  0  0  0  0  0  0  0999 V2000
   -3.4716    2.0427    0.0000 C   0  0  0  0  0  0  0  0  0  0  0  0
   -2.9435    0.6388    0.0000 C   0  0  0  0  0  0  0  0  0  0  0  0
   -3.7688   -0.6137    0.0000 C   0  0  0  0  0  0  0  0  0  0  0  0
   -2.8327   -1.7857    0.0000 O   0  0  0  0  0  0  0  0  0  0  0  0
   -1.4287   -1.2575    0.0000 C   0  0  0  0  0  0  0  0  0  0  0  0
   -1.4972    0.2409    0.0000 C   0  0  0  0  0  0  0  0  0  0  0  0
   -0.2337    1.0494    0.0000 C   0  0  0  0  0  0  0  0  0  0  0  0
    0.6770    2.2413    0.0000 C   0  0  0  0  0  0  0  0  0  0  0  0
   -1.2494    2.1533    0.0000 O   0  0  0  0  0  0  0  0  0  0  0  0
    1.0982    0.3595    0.0000 C   0  0  0  0  0  0  0  0  0  0  0  0
    1.1667   -1.1389    0.0000 C   0  0  0  0  0  0  0  0  0  0  0  0
    2.4986   -1.8289    0.0000 C   0  0  0  0  0  0  0  0  0  0  0  0
    3.7620   -1.0203    0.0000 C   0  0  0  0  0  0  0  0  0  0  0  0
    3.6935    0.4781    0.0000 C   0  0  0  0  0  0  0  0  0  0  0  0
    2.3616    1.1680    0.0000 C   0  0  0  0  0  0  0  0  0  0  0  0
    2.2931    2.6665    0.0000 C   0  0  0  0  0  0  0  0  0  0  0  0
   -0.0968   -1.9475    0.0000 C   0  0  0  0  0  0  0  0  0  0  0  0
   -0.0283   -3.4459    0.0000 O   0  0  0  0  0  0  0  0  0  0  0  0
  1  2  1  0
  2  3  2  0
  3  4  1  0
  4  5  1  0
  5  6  2  0
  6  7  1  0
  7  8  1  6
  7  9  1  0
  7 10  1  0
 10 11  2  0
 11 12  1  0
 12 13  1  0
 13 14  1  0
 14 15  1  0
 15 16  1  1
 11 17  1  0
 17 18  2  0
  6  2  1  0
 15 10  1  0
 17  5  1  0
M  END
>  <identifier>  (87) 
CNP0230494.1

>  <canonical_smiles>  (87) 
CC1=COC2=C1[C@@](C)(O)C1=C(CCC[C@@H]1C)C2=O

>  <standard_inchi>  (87) 
InChI=1S/C15H18O3/c1-8-5-4-6-10-11(8)15(3,17)12-9(2)7-18-14(12)13(10)16/h7-8,17H,4-6H2,1-3H3/t8-,15-/m0/s1

>  <standard_inchi_key>  (87) 
VNNQNPHIASWXBS-AYVTZFPOSA-N

>  <name>  (87) 
Epicacalone

>  <iupac_name>  (87) 
(4~{S},5~{S})-4-hydroxy-3,4,5-trimethyl-5,6,7,8-tetrahydrobenzo[f]benzofuran-9-one

>  <annotation_level>  (87) 
5

>  <total_atom_count>  (87) 
36

>  <heavy_atom_count>  (87) 
18

>  <molecular_weight>  (87) 
246.31

>  <exact_molecular_weight>  (87) 
246.12559

>  <molecular_formula>  (87) 
C15H18O3

>  <alogp>  (87) 
3.11

>  <topological_polar_surface_area>  (87) 
50.44

>  <rotatable_bond_count>  (87) 
0

>  <hydrogen_bond_acceptors>  (87) 
3

>  <hydrogen_bond_donors>  (87) 
1

>  <hydrogen_bond_acceptors_lipinski>  (87) 
3

>  <hydrogen_bond_donors_lipinski>  (87) 
1

>  <lipinski_rule_of_five_violations>  (87) 
0

>  <aromatic_rings_count>  (87) 
1

>  <qed_drug_likeliness>  (87) 
0.76

>  <formal_charge>  (87) 
0

>  <fractioncsp3>  (87) 
0.53

>  <number_of_minimal_rings>  (87) 
3

>  <van_der_walls_volume>  (87) 
229.35

>  <contains_sugar>  (87) 
False

>  <contains_ring_sugars>  (87) 
False

>  <contains_linear_sugars>  (87) 
False

>  <murcko_framework>  (87) 
o1ccc2c1CC3=C(C2)CCCC3

>  <np_likeness>  (87) 
2.31

>  <chemical_class>  (87) 
Prenol lipids

>  <chemical_sub_class>  (87) 
Sesquiterpenoids

>  <chemical_super_class>  (87) 
Lipids and lipid-like molecules

>  <direct_parent_classification>  (87) 
Eremophilane, 8,9-secoeremophilane and furoeremophilane sesquiterpenoids

>  <np_classifier_pathway>  (87) 
Terpenoids

>  <np_classifier_superclass>  (87) 
Sesquiterpenoids

>  <np_classifier_class>  (87) 
nan

>  <np_classifier_is_glycoside>  (87) 
False

>  <organisms>  (87) 
Artemisia sylvatica|Cacalia spp.|Flourensia cernua|Lobaria isidiosa|Marinobacter hydrocarbonoclasticus|Packera bellidifolia|Psacalium decompositum|Scytonema hofmannii

>  <collections>  (87) 
BIOFACQUIM|KNApSaCK|Latin America dataset|NPASS|NPEdia

>  <dois>  (87) 
10.1021/np2009412|10.1021/np990023v

>  <synonyms>  (87) 
CHEMBL491540|Epicacalone

>  <cas>  (87) 
nan

$$$$

     RDKit          2D

 22 24  0  0  0  0  0  0  0  0999 V2000
    4.5000   -2.5981    0.0000 C   0  0  0  0  0  0  0  0  0  0  0  0
    3.7500   -1.2990    0.0000 O   0  0  0  0  0  0  0  0  0  0  0  0
    2.2500   -1.2990    0.0000 C   0  0  0  0  0  0  0  0  0  0  0  0
    1.5000   -2.5981    0.0000 C   0  0  0  0  0  0  0  0  0  0  0  0
   -0.0000   -2.5981    0.0000 C   0  0  0  0  0  0  0  0  0  0  0  0
   -0.7500   -3.8971    0.0000 C   0  0  0  0  0  0  0  0  0  0  0  0
   -0.7500   -1.2990    0.0000 C   0  0  0  0  0  0  0  0  0  0  0  0
   -2.2500   -1.2990    0.0000 C   0  0  0  0  0  0  0  0  0  0  0  0
   -3.0000   -2.5981    0.0000 O   0  0  0  0  0  0  0  0  0  0  0  0
   -4.5000   -2.5981    0.0000 C   0  0  0  0  0  0  0  0  0  0  0  0
   -3.0000    0.0000    0.0000 C   0  0  0  0  0  0  0  0  0  0  0  0
   -2.2500    1.2990    0.0000 C   0  0  0  0  0  0  0  0  0  0  0  0
   -3.0000    2.5981    0.0000 O   0  0  0  0  0  0  0  0  0  0  0  0
   -0.7500    1.2990    0.0000 C   0  0  0  0  0  0  0  0  0  0  0  0
   -0.0000   -0.0000    0.0000 C   0  0  0  0  0  0  0  0  0  0  0  0
    1.5000   -0.0000    0.0000 C   0  0  0  0  0  0  0  0  0  0  0  0
    2.2500    1.2990    0.0000 C   0  0  0  0  0  0  0  0  0  0  0  0
    3.7500    1.2990    0.0000 O   0  0  0  0  0  0  0  0  0  0  0  0
    1.5000    2.5981    0.0000 O   0  0  0  0  0  0  0  0  0  0  0  0
    0.0000    2.5981    0.0000 C   0  0  0  0  0  0  0  0  0  0  0  0
   -0.7500    3.8971    0.0000 O   0  0  0  0  0  0  0  0  0  0  0  0
    0.0000    5.1962    0.0000 C   0  0  0  0  0  0  0  0  0  0  0  0
  1  2  1  0
  2  3  1  0
  3  4  2  0
  4  5  1  0
  5  6  1  0
  5  7  2  0
  7  8  1  0
  8  9  1  0
  9 10  1  0
  8 11  2  0
 11 12  1  0
 12 13  1  0
 12 14  2  0
 14 15  1  0
 15 16  2  0
 16 17  1  0
 17 18  2  0
 17 19  1  0
 19 20  1  0
 20 21  1  1
 21 22  1  0
 16  3  1  0
 15  7  1  0
 20 14  1  0
M  END
>  <identifier>  (88) 
CNP0380473.1

>  <canonical_smiles>  (88) 
COC1=CC(C)=C2C(OC)=CC(O)=C3C2=C1C(=O)O[C@@H]3OC

>  <standard_inchi>  (88) 
InChI=1S/C16H16O6/c1-7-5-9(19-2)13-14-11(7)10(20-3)6-8(17)12(14)16(21-4)22-15(13)18/h5-6,16-17H,1-4H3/t16-/m0/s1

>  <standard_inchi_key>  (88) 
HBTQKFCMVAYBOL-INIZCTEOSA-N

>  <name>  (88) 
Corymbiferan lactone E

>  <iupac_name>  (88) 
(4~{S})-6-hydroxy-4,8,12-trimethoxy-10-methyl-3-oxatricyclo[7.3.1.0^{5,13}]trideca-1(13),5,7,9,11-pentaen-2-one

>  <annotation_level>  (88) 
5

>  <total_atom_count>  (88) 
38

>  <heavy_atom_count>  (88) 
22

>  <molecular_weight>  (88) 
304.3

>  <exact_molecular_weight>  (88) 
304.09469

>  <molecular_formula>  (88) 
C16H16O6

>  <alogp>  (88) 
2.69

>  <topological_polar_surface_area>  (88) 
74.22

>  <rotatable_bond_count>  (88) 
3

>  <hydrogen_bond_acceptors>  (88) 
6

>  <hydrogen_bond_donors>  (88) 
1

>  <hydrogen_bond_acceptors_lipinski>  (88) 
6

>  <hydrogen_bond_donors_lipinski>  (88) 
1

>  <lipinski_rule_of_five_violations>  (88) 
0

>  <aromatic_rings_count>  (88) 
2

>  <qed_drug_likeliness>  (88) 
0.88

>  <formal_charge>  (88) 
0

>  <fractioncsp3>  (88) 
0.31

>  <number_of_minimal_rings>  (88) 
3

>  <van_der_walls_volume>  (88) 
259.04

>  <contains_sugar>  (88) 
False

>  <contains_ring_sugars>  (88) 
False

>  <contains_linear_sugars>  (88) 
False

>  <murcko_framework>  (88) 
O1Cc2cccc3cccc(c32)C1

>  <np_likeness>  (88) 
1.49

>  <chemical_class>  (88) 
Naphthalenes

>  <chemical_sub_class>  (88) 
Naphthols and derivatives

>  <chemical_super_class>  (88) 
Benzenoids

>  <direct_parent_classification>  (88) 
Naphthols and derivatives

>  <np_classifier_pathway>  (88) 
Polyketides

>  <np_classifier_superclass>  (88) 
Naphthalenes

>  <np_classifier_class>  (88) 
Naphthalenes and derivatives

>  <np_classifier_is_glycoside>  (88) 
False

>  <organisms>  (88) 
Sporormiella minimoides

>  <collections>  (88) 
BIOFACQUIM

>  <dois>  (88) 
10.1016/j.phytochem.2013.09.006

>  <synonyms>  (88) 
CHEBI:226622|6-hydroxy-4|8|12-trimethoxy-10-methyl-3-oxatricyclo7.3.1.05|13trideca-1(12)|5(13)|6|8|10-pentaen-2-one|Corymbiferan lactone E

>  <cas>  (88) 
nan

$$$$

     RDKit          2D

 25 27  0  0  0  0  0  0  0  0999 V2000
   -5.3975    0.0323    0.0000 C   0  0  0  0  0  0  0  0  0  0  0  0
   -5.0021    1.4792    0.0000 C   0  0  0  0  0  0  0  0  0  0  0  0
   -3.5513    1.8602    0.0000 C   0  0  0  0  0  0  0  0  0  0  0  0
   -3.1559    3.3072    0.0000 C   0  0  0  0  0  0  0  0  0  0  0  0
   -2.4959    0.7943    0.0000 C   0  0  0  0  0  0  0  0  0  0  0  0
   -3.0647   -0.5936    0.0000 O   0  0  0  0  0  0  0  0  0  0  0  0
   -1.0451    1.1753    0.0000 O   0  0  0  0  0  0  0  0  0  0  0  0
    0.0103    0.1094    0.0000 C   0  0  0  0  0  0  0  0  0  0  0  0
   -0.3851   -1.3375    0.0000 C   0  0  0  0  0  0  0  0  0  0  0  0
    0.6703   -2.4034    0.0000 C   0  0  0  0  0  0  0  0  0  0  0  0
   -0.0174   -3.7365    0.0000 O   0  0  0  0  0  0  0  0  0  0  0  0
   -1.4977   -3.4945    0.0000 C   0  0  0  0  0  0  0  0  0  0  0  0
   -1.7250   -2.0119    0.0000 C   0  0  0  0  0  0  0  0  0  0  0  0
   -3.1320   -1.4919    0.0000 C   0  0  0  0  0  0  0  0  0  0  0  0
    2.1210   -2.0224    0.0000 C   0  0  0  0  0  0  0  0  0  0  0  0
    3.1764   -3.0883    0.0000 O   0  0  0  0  0  0  0  0  0  0  0  0
    2.5165   -0.5755    0.0000 C   0  0  0  0  0  0  0  0  0  0  0  0
    3.9673   -0.1944    0.0000 C   0  0  0  0  0  0  0  0  0  0  0  0
    4.3627    1.2525    0.0000 C   0  0  0  0  0  0  0  0  0  0  0  0
    5.8135    1.6336    0.0000 O   0  0  0  0  0  0  0  0  0  0  0  0
    3.3073    2.3184    0.0000 C   0  0  0  0  0  0  0  0  0  0  0  0
    1.8565    1.9374    0.0000 C   0  0  0  0  0  0  0  0  0  0  0  0
    0.8011    3.0033    0.0000 C   0  0  0  0  0  0  0  0  0  0  0  0
    1.4611    0.4905    0.0000 C   0  0  0  0  0  0  0  0  0  0  0  0
    0.4057    1.5564    0.0000 C   0  0  0  0  0  0  0  0  0  0  0  0
  1  2  1  0
  2  3  2  0
  3  4  1  0
  3  5  1  0
  5  6  2  0
  5  7  1  0
  8  7  1  1
  8  9  1  0
  9 10  2  0
 10 11  1  0
 11 12  1  0
 12 13  2  0
 13 14  1  0
 10 15  1  0
 15 16  2  0
 15 17  1  0
 17 18  2  0
 18 19  1  0
 19 20  1  1
 19 21  1  0
 21 22  1  0
 22 23  1  1
 22 24  1  0
 24 25  1  1
 24  8  1  0
 13  9  1  0
 24 17  1  0
M  END
>  <identifier>  (89) 
CNP0206973.1

>  <canonical_smiles>  (89) 
C/C=C(/C)C(=O)O[C@@H]1C2=C(OC=C2C)C(=O)C2=C[C@H](O)C[C@H](C)[C@]21C

>  <standard_inchi>  (89) 
InChI=1S/C20H24O5/c1-6-10(2)19(23)25-18-15-11(3)9-24-17(15)16(22)14-8-13(21)7-12(4)20(14,18)5/h6,8-9,12-13,18,21H,7H2,1-5H3/b10-6-/t12-,13+,18+,20+/m0/s1

>  <standard_inchi_key>  (89) 
HCALXELNJAAKNG-LMIMRNIOSA-N

>  <name>  (89) 
nan

>  <iupac_name>  (89) 
[(4~{S},4~{a}~{R},5~{S},7~{R})-7-hydroxy-3,4~{a},5-trimethyl-9-oxo-4,5,6,7-tetrahydrobenzo[f]benzofuran-4-yl] (~{Z})-2-methylbut-2-enoate

>  <annotation_level>  (89) 
5

>  <total_atom_count>  (89) 
49

>  <heavy_atom_count>  (89) 
25

>  <molecular_weight>  (89) 
344.41

>  <exact_molecular_weight>  (89) 
344.16237

>  <molecular_formula>  (89) 
C20H24O5

>  <alogp>  (89) 
3.67

>  <topological_polar_surface_area>  (89) 
76.74

>  <rotatable_bond_count>  (89) 
2

>  <hydrogen_bond_acceptors>  (89) 
5

>  <hydrogen_bond_donors>  (89) 
1

>  <hydrogen_bond_acceptors_lipinski>  (89) 
5

>  <hydrogen_bond_donors_lipinski>  (89) 
1

>  <lipinski_rule_of_five_violations>  (89) 
0

>  <aromatic_rings_count>  (89) 
1

>  <qed_drug_likeliness>  (89) 
0.65

>  <formal_charge>  (89) 
0

>  <fractioncsp3>  (89) 
0.50

>  <number_of_minimal_rings>  (89) 
3

>  <van_der_walls_volume>  (89) 
318.79

>  <contains_sugar>  (89) 
False

>  <contains_ring_sugars>  (89) 
False

>  <contains_linear_sugars>  (89) 
False

>  <murcko_framework>  (89) 
o1ccc2c1CC3=CCCCC3C2

>  <np_likeness>  (89) 
3.03

>  <chemical_class>  (89) 
Prenol lipids

>  <chemical_sub_class>  (89) 
Sesquiterpenoids

>  <chemical_super_class>  (89) 
Lipids and lipid-like molecules

>  <direct_parent_classification>  (89) 
Eremophilane, 8,9-secoeremophilane and furoeremophilane sesquiterpenoids

>  <np_classifier_pathway>  (89) 
Terpenoids

>  <np_classifier_superclass>  (89) 
Sesquiterpenoids

>  <np_classifier_class>  (89) 
Eremophilane sesquiterpenoids

>  <np_classifier_is_glycoside>  (89) 
False

>  <organisms>  (89) 
Packera bellidifolia

>  <collections>  (89) 
BIOFACQUIM|Latin America dataset

>  <dois>  (89) 
10.1021/np2009412

>  <synonyms>  (89) 
2\u0152\u2264-hydroxyneoadenostylone

>  <cas>  (89) 
nan

$$$$

     RDKit          2D

 19 21  0  0  0  0  0  0  0  0999 V2000
   -4.7478    1.9263    0.0000 C   0  0  0  0  0  0  0  0  0  0  0  0
   -3.5340    1.0450    0.0000 C   0  0  0  0  0  0  0  0  0  0  0  0
   -3.6903   -0.4468    0.0000 C   0  0  0  0  0  0  0  0  0  0  0  0
   -2.4765   -1.3281    0.0000 C   0  0  0  0  0  0  0  0  0  0  0  0
   -2.6328   -2.8200    0.0000 O   0  0  0  0  0  0  0  0  0  0  0  0
   -1.1064   -0.7176    0.0000 C   0  0  0  0  0  0  0  0  0  0  0  0
    0.1075   -1.5988    0.0000 C   0  0  0  0  0  0  0  0  0  0  0  0
   -0.0488   -3.0907    0.0000 O   0  0  0  0  0  0  0  0  0  0  0  0
    1.4776   -0.9883    0.0000 C   0  0  0  0  0  0  0  0  0  0  0  0
    2.6914   -1.8696    0.0000 C   0  0  0  0  0  0  0  0  0  0  0  0
    4.0615   -1.2590    0.0000 C   0  0  0  0  0  0  0  0  0  0  0  0
    4.2178    0.2328    0.0000 C   0  0  0  0  0  0  0  0  0  0  0  0
    3.0040    1.1141    0.0000 C   0  0  0  0  0  0  0  0  0  0  0  0
    3.1603    2.6059    0.0000 O   0  0  0  0  0  0  0  0  0  0  0  0
    1.6339    0.5035    0.0000 C   0  0  0  0  0  0  0  0  0  0  0  0
    0.4201    1.3848    0.0000 C   0  0  0  0  0  0  0  0  0  0  0  0
    0.5764    2.8767    0.0000 O   0  0  0  0  0  0  0  0  0  0  0  0
   -0.9500    0.7743    0.0000 C   0  0  0  0  0  0  0  0  0  0  0  0
   -2.1639    1.6555    0.0000 C   0  0  0  0  0  0  0  0  0  0  0  0
  1  2  1  0
  2  3  2  0
  3  4  1  0
  4  5  1  0
  4  6  2  0
  6  7  1  0
  7  8  2  0
  7  9  1  0
  9 10  2  0
 10 11  1  0
 11 12  2  0
 12 13  1  0
 13 14  1  0
 13 15  2  0
 15 16  1  0
 16 17  2  0
 16 18  1  0
 18 19  2  0
 19  2  1  0
 18  6  1  0
 15  9  1  0
M  END
>  <identifier>  (90) 
CNP0318132.0

>  <canonical_smiles>  (90) 
CC1=CC(O)=C2C(=O)C3=CC=CC(O)=C3C(=O)C2=C1

>  <standard_inchi>  (90) 
InChI=1S/C15H10O4/c1-7-5-9-13(11(17)6-7)14(18)8-3-2-4-10(16)12(8)15(9)19/h2-6,16-17H,1H3

>  <standard_inchi_key>  (90) 
IYNJGYCVIYBFBS-UHFFFAOYSA-N

>  <name>  (90) 
1,5-Dihydroxy-3-methylanthraquinone

>  <iupac_name>  (90) 
1,5-dihydroxy-3-methyl-anthracene-9,10-dione

>  <annotation_level>  (90) 
5

>  <total_atom_count>  (90) 
29

>  <heavy_atom_count>  (90) 
19

>  <molecular_weight>  (90) 
254.24

>  <exact_molecular_weight>  (90) 
254.05791

>  <molecular_formula>  (90) 
C15H10O4

>  <alogp>  (90) 
2.18

>  <topological_polar_surface_area>  (90) 
74.60

>  <rotatable_bond_count>  (90) 
0

>  <hydrogen_bond_acceptors>  (90) 
4

>  <hydrogen_bond_donors>  (90) 
2

>  <hydrogen_bond_acceptors_lipinski>  (90) 
4

>  <hydrogen_bond_donors_lipinski>  (90) 
2

>  <lipinski_rule_of_five_violations>  (90) 
0

>  <aromatic_rings_count>  (90) 
2

>  <qed_drug_likeliness>  (90) 
0.64

>  <formal_charge>  (90) 
0

>  <fractioncsp3>  (90) 
0.07

>  <number_of_minimal_rings>  (90) 
3

>  <van_der_walls_volume>  (90) 
213.22

>  <contains_sugar>  (90) 
False

>  <contains_ring_sugars>  (90) 
False

>  <contains_linear_sugars>  (90) 
False

>  <murcko_framework>  (90) 
c1ccc2c(c1)Cc3ccccc3C2

>  <np_likeness>  (90) 
0.91

>  <chemical_class>  (90) 
Anthracenes

>  <chemical_sub_class>  (90) 
Anthraquinones

>  <chemical_super_class>  (90) 
Benzenoids

>  <direct_parent_classification>  (90) 
Anthraquinones

>  <np_classifier_pathway>  (90) 
Polyketides

>  <np_classifier_superclass>  (90) 
Polycyclic aromatic polyketides

>  <np_classifier_class>  (90) 
Anthraquinones and anthrones

>  <np_classifier_is_glycoside>  (90) 
False

>  <organisms>  (90) 
Allochromatium minutissimum|Amentotaxus yunnanensis|Artemisia siversiana|Camptothecium lutescens|Cassia alata|Cladonia bellidiflora|Decachaeta ovatifolia|Deguelia hatschbachii|Delphinium cyphoplectrum|Digitalis orientalis|Dioscorea communis|Diploclisia glaucescens|Eleutherine americana MERR.et HEYNE|Euphorbia retusa|Hydrolithon reinboldii|Notholaena dealbata|Palmaria palmata|Phallusia fumigata|Pleurophycus gardneri|Rhabdia lycioides|Ritterella rubra|Salvia przewalskii|Salvia przewalskll|Sporormiella minimoides|Stauntonia obovatifoliola|Streptomyces lateritius|Uvaria klaineana|Viburnum sieboldi|Vicia sativa

>  <collections>  (90) 
Australian natural products|BIOFACQUIM|CMAUP (cCollective molecular activities of useful plants)|KNApSaCK|Latin America dataset|NPASS|TCMDB-Taiwan (Traditional Chinese Medicine database)|TCMID (Traditional Chinese Medicine Integrated Database)|UNPD (Universal Natural Products Database)|ZINC NP

>  <dois>  (90) 
10.1016/j.phytochem.2013.09.006

>  <synonyms>  (90) 
21891-63-4|SCHEMBL19461856|DTXSID70415708|1|5-Dihydroxy-3-methylanthrachinon|Ziganein|ziganein

>  <cas>  (90) 
21891-63-4

$$$$

     RDKit          2D

 35 39  0  0  0  0  0  0  0  0999 V2000
   -3.5901   -3.1244    0.0000 C   0  0  0  0  0  0  0  0  0  0  0  0
   -3.4653   -1.6296    0.0000 C   0  0  0  0  0  0  0  0  0  0  0  0
   -4.6974   -0.7741    0.0000 C   0  0  0  0  0  0  0  0  0  0  0  0
   -4.5727    0.7207    0.0000 C   0  0  0  0  0  0  0  0  0  0  0  0
   -3.2157    1.3600    0.0000 C   0  0  0  0  0  0  0  0  0  0  0  0
   -2.7795    1.6999    0.0000 C   0  0  0  0  0  0  0  0  0  0  0  0
   -3.3609    2.1247    0.0000 O   0  0  0  0  0  0  0  0  0  0  0  0
   -2.7171    2.4473    0.0000 C   0  0  0  0  0  0  0  0  0  0  0  0
   -4.8173    4.8956    0.0000 O   0  0  0  0  0  0  0  0  0  0  0  0
   -3.0910    2.8548    0.0000 C   0  0  0  0  0  0  0  0  0  0  0  0
   -1.7340    3.4941    0.0000 C   0  0  0  0  0  0  0  0  0  0  0  0
   -0.5019    2.6387    0.0000 C   0  0  0  0  0  0  0  0  0  0  0  0
    0.8550    3.2780    0.0000 O   0  0  0  0  0  0  0  0  0  0  0  0
    2.0872    2.4225    0.0000 C   0  0  0  0  0  0  0  0  0  0  0  0
    1.9624    0.9277    0.0000 O   0  0  0  0  0  0  0  0  0  0  0  0
    3.1945    0.0723    0.0000 C   0  0  0  0  0  0  0  0  0  0  0  0
    3.0698   -1.4225    0.0000 C   0  0  0  0  0  0  0  0  0  0  0  0
    4.3019   -2.2780    0.0000 O   0  0  0  0  0  0  0  0  0  0  0  0
    4.5515    0.7116    0.0000 C   0  0  0  0  0  0  0  0  0  0  0  0
    5.7836   -0.1439    0.0000 O   0  0  0  0  0  0  0  0  0  0  0  0
    4.6763    2.2064    0.0000 C   0  0  0  0  0  0  0  0  0  0  0  0
    6.0332    2.8457    0.0000 O   0  0  0  0  0  0  0  0  0  0  0  0
    3.4441    3.0619    0.0000 C   0  0  0  0  0  0  0  0  0  0  0  0
    3.5689    4.5567    0.0000 O   0  0  0  0  0  0  0  0  0  0  0  0
   -0.6267    1.1439    0.0000 C   0  0  0  0  0  0  0  0  0  0  0  0
   -1.9836    0.5045    0.0000 C   0  0  0  0  0  0  0  0  0  0  0  0
   -2.1084   -0.9903    0.0000 C   0  0  0  0  0  0  0  0  0  0  0  0
   -0.6146   -0.8536    0.0000 C   0  0  0  0  0  0  0  0  0  0  0  0
   -1.7144   -2.4376    0.0000 C   0  0  0  0  0  0  0  0  0  0  0  0
   -0.2640   -2.8201    0.0000 C   0  0  0  0  0  0  0  0  0  0  0  0
    0.1300   -4.2674    0.0000 C   0  0  0  0  0  0  0  0  0  0  0  0
    1.5325   -4.7994    0.0000 C   0  0  0  0  0  0  0  0  0  0  0  0
    1.4600   -6.2976    0.0000 O   0  0  0  0  0  0  0  0  0  0  0  0
    0.0127   -6.6916    0.0000 C   0  0  0  0  0  0  0  0  0  0  0  0
   -0.8093   -5.4369    0.0000 C   0  0  0  0  0  0  0  0  0  0  0  0
  2  1  1  6
  2  3  1  0
  3  4  1  0
  5  4  1  6
  5  6  1  0
  6  7  1  0
  7  8  1  0
  8  9  2  0
  8 10  1  0
 10 11  2  0
 11 12  1  0
 12 13  1  1
 14 13  1  1
 14 15  1  0
 15 16  1  0
 16 17  1  1
 17 18  1  0
 16 19  1  0
 19 20  1  6
 19 21  1  0
 21 22  1  1
 21 23  1  0
 23 24  1  6
 12 25  1  0
 25 26  1  0
 26 27  1  0
 27 28  1  6
 27 29  1  0
 29 30  1  0
 30 31  1  0
 31 32  2  0
 32 33  1  0
 33 34  1  0
 34 35  2  0
 27  2  1  0
 35 31  1  0
 10  5  1  0
 23 14  1  0
 26  5  1  0
M  END
>  <identifier>  (91) 
CNP0255066.1

>  <canonical_smiles>  (91) 
C[C@@H]1CC[C@@]23COC(=O)C2=C[C@@H](O[C@@H]2O[C@H](CO)[C@@H](O)[C@H](O)[C@H]2O)CC3[C@@]1(C)CCC1=COC=C1

>  <standard_inchi>  (91) 
InChI=1S/C26H36O9/c1-14-3-7-26-13-33-23(31)17(26)9-16(34-24-22(30)21(29)20(28)18(11-27)35-24)10-19(26)25(14,2)6-4-15-5-8-32-12-15/h5,8-9,12,14,16,18-22,24,27-30H,3-4,6-7,10-11,13H2,1-2H3/t14-,16-,18-,19?,20-,21+,22-,24-,25+,26-/m1/s1

>  <standard_inchi_key>  (91) 
ROSSVNHEVRUXGM-HEMPLKHUSA-N

>  <name>  (91) 
nan

>  <iupac_name>  (91) 
(5~{S},7~{S},8~{R},10~{a}~{S})-7-[2-(3-furyl)ethyl]-7,8-dimethyl-5-[(2~{R},3~{R},4~{S},5~{S},6~{R})-3,4,5-trihydroxy-6-(hydroxymethyl)tetrahydropyran-2-yl]oxy-5,6,6~{a},8,9,10-hexahydro-1~{H}-benzo[d]isobenzofuran-3-one

>  <annotation_level>  (91) 
5

>  <total_atom_count>  (91) 
71

>  <heavy_atom_count>  (91) 
35

>  <molecular_weight>  (91) 
492.57

>  <exact_molecular_weight>  (91) 
492.23593

>  <molecular_formula>  (91) 
C26H36O9

>  <alogp>  (91) 
1.32

>  <topological_polar_surface_area>  (91) 
138.82

>  <rotatable_bond_count>  (91) 
6

>  <hydrogen_bond_acceptors>  (91) 
9

>  <hydrogen_bond_donors>  (91) 
4

>  <hydrogen_bond_acceptors_lipinski>  (91) 
9

>  <hydrogen_bond_donors_lipinski>  (91) 
4

>  <lipinski_rule_of_five_violations>  (91) 
0

>  <aromatic_rings_count>  (91) 
1

>  <qed_drug_likeliness>  (91) 
0.43

>  <formal_charge>  (91) 
0

>  <fractioncsp3>  (91) 
0.73

>  <number_of_minimal_rings>  (91) 
5

>  <van_der_walls_volume>  (91) 
440.66

>  <contains_sugar>  (91) 
True

>  <contains_ring_sugars>  (91) 
True

>  <contains_linear_sugars>  (91) 
False

>  <murcko_framework>  (91) 
o1ccc(c1)CCC2CCCC34C(=CC(OC5OCCCC5)CC23)COC4

>  <np_likeness>  (91) 
3.02

>  <chemical_class>  (91) 
Organooxygen compounds

>  <chemical_sub_class>  (91) 
Carbohydrates and carbohydrate conjugates

>  <chemical_super_class>  (91) 
Organic oxygen compounds

>  <direct_parent_classification>  (91) 
Monosaccharides

>  <np_classifier_pathway>  (91) 
Terpenoids

>  <np_classifier_superclass>  (91) 
Diterpenoids

>  <np_classifier_class>  (91) 
Colensane and Clerodane diterpenoids

>  <np_classifier_is_glycoside>  (91) 
True

>  <organisms>  (91) 
Salvia circinata

>  <collections>  (91) 
BIOFACQUIM|Latin America dataset

>  <dois>  (91) 
10.1021/acs.jnatprod.7b00155

>  <synonyms>  (91) 
Amarisolide

>  <cas>  (91) 
nan

$$$$

     RDKit          2D

 25 27  0  0  0  0  0  0  0  0999 V2000
    0.0453   -4.3390    0.0000 C   0  0  0  0  0  0  0  0  0  0  0  0
    0.2498   -2.8530    0.0000 O   0  0  0  0  0  0  0  0  0  0  0  0
   -0.9348   -1.9328    0.0000 C   0  0  0  0  0  0  0  0  0  0  0  0
   -1.6309   -2.3213    0.0000 O   0  0  0  0  0  0  0  0  0  0  0  0
   -0.7302   -0.4469    0.0000 C   0  0  0  0  0  0  0  0  0  0  0  0
    0.3824   -1.4530    0.0000 O   0  0  0  0  0  0  0  0  0  0  0  0
    1.8100   -0.9926    0.0000 C   0  0  0  0  0  0  0  0  0  0  0  0
    2.9225   -1.9987    0.0000 C   0  0  0  0  0  0  0  0  0  0  0  0
    4.3501   -1.5383    0.0000 C   0  0  0  0  0  0  0  0  0  0  0  0
    4.6651   -0.0718    0.0000 C   0  0  0  0  0  0  0  0  0  0  0  0
    3.5526    0.9344    0.0000 C   0  0  0  0  0  0  0  0  0  0  0  0
    3.8677    2.4009    0.0000 O   0  0  0  0  0  0  0  0  0  0  0  0
    2.1250    0.4740    0.0000 C   0  0  0  0  0  0  0  0  0  0  0  0
    1.0125    1.4801    0.0000 C   0  0  0  0  0  0  0  0  0  0  0  0
    1.3276    2.9466    0.0000 O   0  0  0  0  0  0  0  0  0  0  0  0
   -0.4151    1.0197    0.0000 C   0  0  0  0  0  0  0  0  0  0  0  0
   -1.3652    2.1804    0.0000 C   0  0  0  0  0  0  0  0  0  0  0  0
   -0.7317    3.5400    0.0000 O   0  0  0  0  0  0  0  0  0  0  0  0
   -1.5925    4.7685    0.0000 C   0  0  0  0  0  0  0  0  0  0  0  0
   -2.8651    2.1612    0.0000 O   0  0  0  0  0  0  0  0  0  0  0  0
   -3.7853    0.9766    0.0000 C   0  0  0  0  0  0  0  0  0  0  0  0
   -3.4328   -0.4814    0.0000 C   0  0  0  0  0  0  0  0  0  0  0  0
   -4.5935   -1.4315    0.0000 C   0  0  0  0  0  0  0  0  0  0  0  0
   -2.0732   -1.1149    0.0000 C   0  0  0  0  0  0  0  0  0  0  0  0
   -2.1602   -1.9073    0.0000 O   0  0  0  0  0  0  0  0  0  0  0  0
  1  2  1  0
  2  3  1  0
  3  4  2  0
  5  3  1  1
  5  6  1  0
  6  7  1  0
  7  8  2  0
  8  9  1  0
  9 10  2  0
 10 11  1  0
 11 12  1  0
 11 13  2  0
 13 14  1  0
 14 15  2  0
 14 16  1  0
 16 17  2  0
 17 18  1  0
 18 19  1  0
 17 20  1  0
 20 21  1  0
 21 22  2  0
 22 23  1  0
 22 24  1  0
 24 25  2  0
 16  5  1  0
 24  5  1  0
 13  7  1  0
M  END
>  <identifier>  (92) 
CNP0161526.1

>  <canonical_smiles>  (92) 
COC(=O)[C@]12OC3=CC=CC(O)=C3C(=O)C1=C(OC)OC=C(C)C2=O

>  <standard_inchi>  (92) 
InChI=1S/C17H14O8/c1-8-7-24-15(22-2)12-13(19)11-9(18)5-4-6-10(11)25-17(12,14(8)20)16(21)23-3/h4-7,18H,1-3H3/t17-/m0/s1

>  <standard_inchi_key>  (92) 
OXAJFKDURZRJOW-KRWDZBQOSA-N

>  <name>  (92) 
Brocaenol B

>  <iupac_name>  (92) 
methyl (5~{a}~{S})-10-hydroxy-1-methoxy-4-methyl-5,11-dioxo-oxepino[4,3-b]chromene-5~{a}-carboxylate

>  <annotation_level>  (92) 
5

>  <total_atom_count>  (92) 
39

>  <heavy_atom_count>  (92) 
25

>  <molecular_weight>  (92) 
346.29

>  <exact_molecular_weight>  (92) 
346.06887

>  <molecular_formula>  (92) 
C17H14O8

>  <alogp>  (92) 
1.24

>  <topological_polar_surface_area>  (92) 
108.36

>  <rotatable_bond_count>  (92) 
2

>  <hydrogen_bond_acceptors>  (92) 
8

>  <hydrogen_bond_donors>  (92) 
1

>  <hydrogen_bond_acceptors_lipinski>  (92) 
8

>  <hydrogen_bond_donors_lipinski>  (92) 
1

>  <lipinski_rule_of_five_violations>  (92) 
0

>  <aromatic_rings_count>  (92) 
1

>  <qed_drug_likeliness>  (92) 
0.63

>  <formal_charge>  (92) 
0

>  <fractioncsp3>  (92) 
0.24

>  <number_of_minimal_rings>  (92) 
3

>  <van_der_walls_volume>  (92) 
283.34

>  <contains_sugar>  (92) 
False

>  <contains_ring_sugars>  (92) 
False

>  <contains_linear_sugars>  (92) 
False

>  <murcko_framework>  (92) 
O1C=CCC2Oc3ccccc3CC2=C1

>  <np_likeness>  (92) 
1.28

>  <chemical_class>  (92) 
Benzopyrans

>  <chemical_sub_class>  (92) 
1-benzopyrans

>  <chemical_super_class>  (92) 
Organoheterocyclic compounds

>  <direct_parent_classification>  (92) 
Chromones

>  <np_classifier_pathway>  (92) 
Polyketides

>  <np_classifier_superclass>  (92) 
Chromanes

>  <np_classifier_class>  (92) 
Chromones

>  <np_classifier_is_glycoside>  (92) 
False

>  <organisms>  (92) 
Penicillium brocae|Sporormiella minimoides

>  <collections>  (92) 
BIOFACQUIM|CMNPD|Latin America dataset|NPAtlas

>  <dois>  (92) 
10.1016/j.phytochem.2013.09.006|10.1021/jo020597w|10.1039/b415080p

>  <synonyms>  (92) 
CHEBI:216242|methyl (5aS)-10-hydroxy-1-methoxy-4-methyl-5|11-dioxooxepino4|3-bchromene-5a-carboxylate|Brocaenol B

>  <cas>  (92) 
nan

$$$$

     RDKit          2D

 21 22  0  0  0  0  0  0  0  0999 V2000
   -0.5243   -3.0482    0.0000 N   0  0  0  0  0  0  0  0  0  0  0  0
   -1.0433   -1.6408    0.0000 C   0  0  0  0  0  0  0  0  0  0  0  0
   -1.5622   -0.2334    0.0000 C   0  0  0  0  0  0  0  0  0  0  0  0
   -0.6028    0.9197    0.0000 O   0  0  0  0  0  0  0  0  0  0  0  0
    0.8755    0.6654    0.0000 C   0  0  0  0  0  0  0  0  0  0  0  0
    1.3944   -0.7420    0.0000 O   0  0  0  0  0  0  0  0  0  0  0  0
    2.8727   -0.9963    0.0000 C   0  0  0  0  0  0  0  0  0  0  0  0
    3.3916   -2.4037    0.0000 C   0  0  0  0  0  0  0  0  0  0  0  0
    2.4323   -3.5567    0.0000 O   0  0  0  0  0  0  0  0  0  0  0  0
    3.8320    0.1568    0.0000 C   0  0  0  0  0  0  0  0  0  0  0  0
    5.3103   -0.0975    0.0000 O   0  0  0  0  0  0  0  0  0  0  0  0
    3.3131    1.5642    0.0000 C   0  0  0  0  0  0  0  0  0  0  0  0
    4.2725    2.7173    0.0000 O   0  0  0  0  0  0  0  0  0  0  0  0
    1.8348    1.8185    0.0000 C   0  0  0  0  0  0  0  0  0  0  0  0
    1.3159    3.2259    0.0000 O   0  0  0  0  0  0  0  0  0  0  0  0
   -3.0405    0.0209    0.0000 C   0  0  0  0  0  0  0  0  0  0  0  0
   -3.5594    1.4282    0.0000 C   0  0  0  0  0  0  0  0  0  0  0  0
   -5.0377    1.6825    0.0000 C   0  0  0  0  0  0  0  0  0  0  0  0
   -5.9970    0.5294    0.0000 C   0  0  0  0  0  0  0  0  0  0  0  0
   -5.4781   -0.8780    0.0000 C   0  0  0  0  0  0  0  0  0  0  0  0
   -3.9998   -1.1322    0.0000 C   0  0  0  0  0  0  0  0  0  0  0  0
  1  2  3  0
  3  2  1  1
  3  4  1  0
  5  4  1  1
  5  6  1  0
  6  7  1  0
  7  8  1  1
  8  9  1  0
  7 10  1  0
 10 11  1  6
 10 12  1  0
 12 13  1  1
 12 14  1  0
 14 15  1  6
  3 16  1  0
 16 17  2  0
 17 18  1  0
 18 19  2  0
 19 20  1  0
 20 21  2  0
 14  5  1  0
 21 16  1  0
M  END
>  <identifier>  (93) 
CNP0232898.1

>  <canonical_smiles>  (93) 
N#C[C@H](O[C@@H]1O[C@H](CO)[C@@H](O)[C@H](O)[C@H]1O)C1=CC=CC=C1

>  <standard_inchi>  (93) 
InChI=1S/C14H17NO6/c15-6-9(8-4-2-1-3-5-8)20-14-13(19)12(18)11(17)10(7-16)21-14/h1-5,9-14,16-19H,7H2/t9-,10+,11+,12-,13+,14+/m0/s1

>  <standard_inchi_key>  (93) 
ZKSZEJFBGODIJW-GMDXDWKASA-N

>  <name>  (93) 
Prunasin

>  <iupac_name>  (93) 
(2~{R})-2-phenyl-2-[(2~{R},3~{R},4~{S},5~{S},6~{R})-3,4,5-trihydroxy-6-(hydroxymethyl)tetrahydropyran-2-yl]oxy-acetonitrile

>  <annotation_level>  (93) 
5

>  <total_atom_count>  (93) 
38

>  <heavy_atom_count>  (93) 
21

>  <molecular_weight>  (93) 
295.29

>  <exact_molecular_weight>  (93) 
295.10559

>  <molecular_formula>  (93) 
C14H17NO6

>  <alogp>  (93) 
-0.93

>  <topological_polar_surface_area>  (93) 
123.17

>  <rotatable_bond_count>  (93) 
4

>  <hydrogen_bond_acceptors>  (93) 
7

>  <hydrogen_bond_donors>  (93) 
4

>  <hydrogen_bond_acceptors_lipinski>  (93) 
7

>  <hydrogen_bond_donors_lipinski>  (93) 
4

>  <lipinski_rule_of_five_violations>  (93) 
0

>  <aromatic_rings_count>  (93) 
1

>  <qed_drug_likeliness>  (93) 
0.57

>  <formal_charge>  (93) 
0

>  <fractioncsp3>  (93) 
0.50

>  <number_of_minimal_rings>  (93) 
2

>  <van_der_walls_volume>  (93) 
256.58

>  <contains_sugar>  (93) 
True

>  <contains_ring_sugars>  (93) 
True

>  <contains_linear_sugars>  (93) 
False

>  <murcko_framework>  (93) 
O(Cc1ccccc1)C2OCCCC2

>  <np_likeness>  (93) 
1.33

>  <chemical_class>  (93) 
Organooxygen compounds

>  <chemical_sub_class>  (93) 
Carbohydrates and carbohydrate conjugates

>  <chemical_super_class>  (93) 
Organic oxygen compounds

>  <direct_parent_classification>  (93) 
Cyanogenic glycosides

>  <np_classifier_pathway>  (93) 
Amino acids and Peptides

>  <np_classifier_superclass>  (93) 
Amino acid glycosides

>  <np_classifier_class>  (93) 
Cyanogenic glycosides

>  <np_classifier_is_glycoside>  (93) 
True

>  <organisms>  (93) 
Acacia dealbata Link|Aconitum kamtschaticum|Aconitum leucostomum|Aconitum vilmorinianum|Actinidia kolomikta|Amelanchier lamarckii F. G. Schroed.|Amelanchier ovalis Medik.|Amyris marshii|Anarsia lineatella|Apollonias barbujana|Aquilegia ecalcarata|Artemisia hanseniana|Artemisia lactiflora|Aruncus dioicus|Attalea excelsa|Blumea mollis|Boronella koniambiensis|Brachyspira hyodysenteriae|Brevibacillus laterosporus|Canarium strictum|Catalpa ovata|Ceanothus velutinus|Centaurea nicaeensis|Chlorophytum borivilianum|Citrus hassaku|Coelogorgia palmosa|Coreopsis grandiflora|Cotoneaster integerrimus Medik.|Cotoneaster tomentosus Lindl.|Coutarea latifolia|Crepidiastrum sonchifolium|Cydonia oblonga Mill.|Dipsacus asper|Dipterocarpus dyeri|Dipteronia dyeriana|Dodonaea polyandra|Duguetia calycina|Ectropis bicolor|Elsholtzia Rugulosa|Epirrhoe sperryi|Erinaceus europaeus|Eriostemon spicatus|Esox saurus|Eucalyptus|Eucalyptus camphora|Eucalyptus viminalis|Fragaria vesca|Garcinia macrophylla|Garcinia pyrifera|Garcinia scortechinii|Gardenia tubifera|Gerbera jamesonii|Gouania microcarpa|Greenwayodendron oliveri|Gymnanthemum amygdalinum|Hymenothrix wislizenii|Ipomoea cairica|Isodon lophanthoides|Jacaranda chelonia|Kopsia grandifolia|Lasianthus fordii|Ledebouria socialis|Leucopaxillus giganteus|Lycopus europaeus|Maytenus loeseneri|Maytenus serrata|Monomorium floricola|Murraya kwangsiensis|Odontites rubra|Ongokea klaineana|Ophioparma ventosa|Ophiorrhiza blumeana|Ophryosporus floribundus|Panax innovans|Passiflora edulis|Payena lucida|Penicillium cinerascens|Perilla frutescens|Persea mexicana|Peucedanum palustre|Phalaenopsis aphrodite|Phalaris canariensis|Physalis solanaceus|Plectranthus mollis|Plumbagella micrantha|Podocarpus salignus|Prosopis ruscifolia|Prunus armeniaca|Prunus armeniaca L.|Prunus avium L.|Prunus domestica L.|Prunus dulcis (Mill.) D. A. Webb|Prunus insititia L.|Prunus laurocerasus L.|Prunus mahaleb L.|Prunus mume|Prunus padus L.|Prunus persica (L.) Batsch|Prunus serotina Ehrh.|Prunus spinosa L.|Psychotria bahiensis|Pteridium aquilinum|Pteridium aquilinum (L.) Kuhn|Rhodobacter sphaeroides|Rhodomicrobium vannielii|Rivina humilis|Rusavskia elegans|Samadera indica|Sambucus ebulus L.|Sambucus nigra L.|Sambucus racemosa L.|Schistostephium rotundifolium|Sideritis syriaca|Siphocampylus verticillatus|Sordaria araneosa|Streptomyces fervens|Streptomyces lavendulae|Streptomyces yokosukanensis|Talaromyces coalescens|Tanacetum parthenifolium|Usnea florida|Vauquelinia corymbosa|Vepris pilosa|Veratrum stenophyllum|Viburnum chingii|Zanthoxylum chiriquinum

>  <collections>  (93) 
ANPDB|Australian natural products|BIOFACQUIM|CMAUP (cCollective molecular activities of useful plants)|FooDB|Latin America dataset|NANPDB (Natural Products from Northern African Sources)|NPASS|Phyto4Health|Super Natural II|TCMDB-Taiwan (Traditional Chinese Medicine database)|TPPT (Toxic Plants–PhytoToxins)|VietHerb

>  <dois>  (93) 
10.1002/9780470744307.gat218|10.1002/food.19880321030|10.1016/j.bmcl.2011.04.043|10.1016/j.phytochem.2011.08.022|10.1016/s0031-9422(01)00401-0|10.1016/s0305-1978(01)00141-7|10.1080/14786419.2010.534995|10.3390/molecules200815330

>  <synonyms>  (93) 
(R)-Prunasin|99-18-3|D-Prunasin|(R)-alpha-(beta-D-Glucopyranosyloxy)benzene-acetonitrile|(R)-(beta-D-Glucopyranosyloxy)phenylacetonitrile|14W4BPM5FB|CHEBI:17396|(R)-mandelonitrile beta-D-glucoside|(2R)-2-phenyl-2-(2R|3R|4S|5S|6R)-3|4|5-trihydroxy-6-(hydroxymethyl)oxan-2-yloxyacetonitrile|(R)-2-Phenyl-2-(((2R|3R|4S|5S|6R)-3|4|5-trihydroxy-6-(hydroxymethyl)tetrahydro-2H-pyran-2-yl)oxy)acetonitrile|D-Mandelonitrile-beta-D-glucoside|EINECS 202-738-0|UNII-14W4BPM5FB|BRN 0091509|(2R)-Prunasin; (R)-Prunasin; D-Prunasin|PRUNASIN INCI|Benzeneacetonitrile| alpha-(beta-D-glucopyranosyloxy)-| (R)-|(-)-(2R)-Prunasin|5-17-07-00405 (Beilstein Handbook Reference)|SCHEMBL377612|CHEMBL1778417|DTXSID001018995|HY-N1548|AKOS032948360|MANDELONITRILE GLUCOSIDE D-FORM|AS-75874|1ST158598|CS-0017097|NS00079018|(2R)-(beta-D-glucosyloxy)(phenyl)acetonitrile|C00844|F82086|Q7253027|BENZENEACETONITRILE| .ALPHA.-(.BETA.-D-GLUCOPYRANOSYLOXY)-| (.ALPHA.R)-|Prunasin|prunasin

>  <cas>  (93) 
99-18-3

$$$$

     RDKit          2D

 21 23  0  0  0  0  0  0  0  0999 V2000
   -5.5618   -2.5364    0.0000 O   0  0  0  0  0  0  0  0  0  0  0  0
   -4.5413   -1.4371    0.0000 C   0  0  0  0  0  0  0  0  0  0  0  0
   -4.9831   -0.0036    0.0000 C   0  0  0  0  0  0  0  0  0  0  0  0
   -3.9626    1.0957    0.0000 C   0  0  0  0  0  0  0  0  0  0  0  0
   -4.4044    2.5292    0.0000 O   0  0  0  0  0  0  0  0  0  0  0  0
   -2.5003    0.7616    0.0000 C   0  0  0  0  0  0  0  0  0  0  0  0
   -1.4798    1.8610    0.0000 C   0  0  0  0  0  0  0  0  0  0  0  0
   -0.0175    1.5269    0.0000 C   0  0  0  0  0  0  0  0  0  0  0  0
    1.0030    2.6262    0.0000 O   0  0  0  0  0  0  0  0  0  0  0  0
    0.4243    0.0934    0.0000 C   0  0  0  0  0  0  0  0  0  0  0  0
    1.8866   -0.2407    0.0000 C   0  0  0  0  0  0  0  0  0  0  0  0
    2.3285   -1.6741    0.0000 C   0  0  0  0  0  0  0  0  0  0  0  0
    3.7908   -2.0083    0.0000 C   0  0  0  0  0  0  0  0  0  0  0  0
    4.8113   -0.9089    0.0000 C   0  0  0  0  0  0  0  0  0  0  0  0
    6.2736   -1.2430    0.0000 O   0  0  0  0  0  0  0  0  0  0  0  0
    4.3695    0.5246    0.0000 C   0  0  0  0  0  0  0  0  0  0  0  0
    5.3900    1.6239    0.0000 O   0  0  0  0  0  0  0  0  0  0  0  0
    2.9071    0.8587    0.0000 C   0  0  0  0  0  0  0  0  0  0  0  0
   -0.5962   -1.0059    0.0000 O   0  0  0  0  0  0  0  0  0  0  0  0
   -2.0585   -0.6718    0.0000 C   0  0  0  0  0  0  0  0  0  0  0  0
   -3.0790   -1.7712    0.0000 C   0  0  0  0  0  0  0  0  0  0  0  0
  1  2  1  0
  2  3  2  0
  3  4  1  0
  4  5  1  0
  4  6  2  0
  6  7  1  0
  7  8  1  0
  8  9  1  6
  8 10  1  0
 10 11  1  6
 11 12  2  0
 12 13  1  0
 13 14  2  0
 14 15  1  0
 14 16  1  0
 16 17  1  0
 16 18  2  0
 10 19  1  0
 19 20  1  0
 20 21  2  0
 21  2  1  0
 20  6  1  0
 18 11  1  0
M  END
>  <identifier>  (94) 
CNP0293352.1

>  <canonical_smiles>  (94) 
OC1=CC(O)=C2C[C@H](O)[C@H](C3=CC=C(O)C(O)=C3)OC2=C1

>  <standard_inchi>  (94) 
InChI=1S/C15H14O6/c16-8-4-11(18)9-6-13(20)15(21-14(9)5-8)7-1-2-10(17)12(19)3-7/h1-5,13,15-20H,6H2/t13-,15-/m0/s1

>  <standard_inchi_key>  (94) 
PFTAWBLQPZVEMU-ZFWWWQNUSA-N

>  <name>  (94) 
(+)-Epicatechin

>  <iupac_name>  (94) 
(2~{S},3~{S})-2-(3,4-dihydroxyphenyl)chromane-3,5,7-triol

>  <annotation_level>  (94) 
5

>  <total_atom_count>  (94) 
35

>  <heavy_atom_count>  (94) 
21

>  <molecular_weight>  (94) 
290.27

>  <exact_molecular_weight>  (94) 
290.07904

>  <molecular_formula>  (94) 
C15H14O6

>  <alogp>  (94) 
1.55

>  <topological_polar_surface_area>  (94) 
110.38

>  <rotatable_bond_count>  (94) 
1

>  <hydrogen_bond_acceptors>  (94) 
6

>  <hydrogen_bond_donors>  (94) 
5

>  <hydrogen_bond_acceptors_lipinski>  (94) 
6

>  <hydrogen_bond_donors_lipinski>  (94) 
5

>  <lipinski_rule_of_five_violations>  (94) 
0

>  <aromatic_rings_count>  (94) 
2

>  <qed_drug_likeliness>  (94) 
0.51

>  <formal_charge>  (94) 
0

>  <fractioncsp3>  (94) 
0.20

>  <number_of_minimal_rings>  (94) 
3

>  <van_der_walls_volume>  (94) 
245.15

>  <contains_sugar>  (94) 
False

>  <contains_ring_sugars>  (94) 
False

>  <contains_linear_sugars>  (94) 
False

>  <murcko_framework>  (94) 
O1c2ccccc2CCC1c3ccccc3

>  <np_likeness>  (94) 
2.30

>  <chemical_class>  (94) 
Flavonoids

>  <chemical_sub_class>  (94) 
Flavans

>  <chemical_super_class>  (94) 
Phenylpropanoids and polyketides

>  <direct_parent_classification>  (94) 
Catechins

>  <np_classifier_pathway>  (94) 
Shikimates and Phenylpropanoids

>  <np_classifier_superclass>  (94) 
Flavonoids

>  <np_classifier_class>  (94) 
Flavan-3-ols

>  <np_classifier_is_glycoside>  (94) 
False

>  <organisms>  (94) 
Abutilon theophrasti|Ageratum houstonianum|Aglaia oligophylla|Agrimonia pilosa|Aloe africana|Aloe ferox|Aloe spicata|Aloe vera|Ampelopsis japonica|Apocynum venetum|Areca catechu|Aspergillus heterothallicus|Aster koraiensis|Averrhoa carambola|Averrhoa carambola L.|Bactrocera cucumis|Boehmeria nivea|Camellia sinensis|Casimiroa tetrameria|Cassia fistula|Centella asiatica|Chaenomeles sinensis|Chaenomeles speciosa|Chamaerops humilis|Cinamomum cassia|Cinnamomum aromaticum|Cissus quinquefolia|Colchicum speciosum|Collisella limatula|Crataegus pinnatifida|Cynomorium songaricum|Dimocarpus longan|Dryas octopetala|Drynaria fortunei|Eucalyptus globulus|Eucommia ulmoides|Euphorbia hirta|Fagopyrum dibotrys|Fallopia multiflora|Garcinia mangostana|Ginkgo biloba|Gleditsia japonica|Gleditsia sinensis|Gymnosporia trigyna|Heliomeris multiflora|Hippophae rhamnoides|Houttuynia cordata|Humulus lupulus|Hymenopenaeus sibogae|Hypericum perforatum|Inula graveolens|Ixeris tamagawaensis|Laurencia snyderae|Licania pittieri|Ligularia dentata|Lilium brownii|Lilium lancifolium|Lilium pumilum|Livistona chinensis|Morus alba|Morus bombycis|Murraya exotica|Murraya paniculata|Nelumbo nucifera|Orostachys fimbriata|Orostachys japonicus|Paeonia lactiflora|Pavetta owariensis|Perilla frutescens|Polygonum cuspidatum|Polygonum multiflorum|Polygonum orientale|Polyporus ellisii|Poria cocos|Portulaca oleracea|Prunus mume|Punica granatum|Rabdosia rosthornii|Rheum coreanum|Rheum officinale|Rheum palmatum|Rheum tanguticum|Rosa laevigata|Rumex japonicus|Rumex nepalensis|Sargentodoxa cuneata|Scutellaria baicalensis|Senecio dryophyllus|Senecio sinuatus|Senegalia catechu|Smilax china|Smilax glabra|Solanum giganteum|Solanum nigrum|Spatholobus suberectus|Spirographis spallanzani|Streptomyces libani|Thymus quinquecostatus|Thymus vulgaris|Uncaria gambir|Uncaria macrophylla|Uncaria rhynchophylla|Uncaria sinensis|Vauquelinia corymbosa|Vigna angularis|Vigna umbellata|Vigna umbeuata|Vitex negundo|Zanthoxylum bungeanum|Zanthoxylum piperitum|Zanthoxylum schinifolium|Zingiber officinale|Ziziphus jujuba|green tea

>  <collections>  (94) 
Australian natural products|BIOFACQUIM|CMAUP (cCollective molecular activities of useful plants)|ChEBI NPs|FooDB|KNApSaCK|Latin America dataset|NPACT|NPASS|NPEdia|Phyto4Health|Super Natural II|TCMDB-Taiwan (Traditional Chinese Medicine database)|TIPdb (database of Taiwan indigenous plants)|VietHerb

>  <dois>  (94) 
10.1016/j.bmcl.2003.09.018|10.1016/j.bmcl.2010.08.061|10.1080/10286020008039912|10.3390/molecules200815330

>  <synonyms>  (94) 
35323-91-2|ent-Epicatechin|d-Epicatechin|(2S|3S)-2-(3|4-dihydroxyphenyl)chroman-3|5|7-triol|(+)-epicatechol|Epicatechin| (+)-|(2S|3S)-2-(3|4-dihydroxyphenyl)-3|4-dihydro-2H-chromene-3|5|7-triol|LD6B6TT8Q5|CHEMBL129482|CHEBI:76125|(2S|3S)-3|3'|4'|5|7-pentahydroxyflavan|(2S|3S)-2-(3|4-dihydroxyphenyl)-3|4-dihydro-2H-1-benzopyran-3|5|7-triol|cis-2-(3|4-Dihydroxyphenyl)chroman-3|5|7-triol|2H-1-Benzopyran-3|5|7-triol| 2-(3|4-dihydroxyphenyl)-3|4-dihydro-| (2S-cis)-|Catechin C|(-) epicatechine|DEXEPICATECHIN|(2S|3S)-epicatechin|EPICATECHIN| D-|UNII-LD6B6TT8Q5|DEXEPICATECHIN INN|SCHEMBL862089|(2S|3S)-(+)-Epicatechin|Ethyl dichlorophosphorylcarbamate|HY-N0001A|PFTAWBLQPZVEMU-ZFWWWQNUSA-N|DTXSID401316979|BDBM50135167|(+)-cis-3|3'|4'|5|7-Pentahydroxyflavan|CS-0204063|C09728|(2S|3S)-3'|4'|5|7-tetrahydroxyflavan-3-ol|99182E3E-BCCB-48BB-89BF-7DDC933D48FF|Q27145771|(-)-epi-catechin|(+)-Epicatechin

>  <cas>  (94) 
35323-91-2

$$$$

     RDKit          2D

 33 36  0  0  0  0  0  0  0  0999 V2000
    1.9234   -1.1111    0.0000 O   0  0  0  0  0  0  0  0  0  0  0  0
    0.4347   -1.2949    0.0000 C   0  0  0  0  0  0  0  0  0  0  0  0
   -0.4689   -0.0976    0.0000 C   0  0  0  0  0  0  0  0  0  0  0  0
    0.1163    1.2836    0.0000 O   0  0  0  0  0  0  0  0  0  0  0  0
    1.6050    1.4674    0.0000 C   0  0  0  0  0  0  0  0  0  0  0  0
    2.5085    0.2701    0.0000 O   0  0  0  0  0  0  0  0  0  0  0  0
    3.9972    0.4539    0.0000 C   0  0  0  0  0  0  0  0  0  0  0  0
    4.9008   -0.7434    0.0000 C   0  0  0  0  0  0  0  0  0  0  0  0
    6.3895   -0.5596    0.0000 O   0  0  0  0  0  0  0  0  0  0  0  0
    4.5824    1.8351    0.0000 C   0  0  0  0  0  0  0  0  0  0  0  0
    6.0711    2.0189    0.0000 O   0  0  0  0  0  0  0  0  0  0  0  0
    3.6788    3.0324    0.0000 C   0  0  0  0  0  0  0  0  0  0  0  0
    4.2640    4.4136    0.0000 O   0  0  0  0  0  0  0  0  0  0  0  0
    2.1901    2.8486    0.0000 C   0  0  0  0  0  0  0  0  0  0  0  0
    1.2866    4.0459    0.0000 O   0  0  0  0  0  0  0  0  0  0  0  0
   -1.9575   -0.2814    0.0000 C   0  0  0  0  0  0  0  0  0  0  0  0
   -2.8611    0.9159    0.0000 C   0  0  0  0  0  0  0  0  0  0  0  0
   -2.2759    2.2971    0.0000 C   0  0  0  0  0  0  0  0  0  0  0  0
   -3.1795    3.4944    0.0000 C   0  0  0  0  0  0  0  0  0  0  0  0
   -4.6682    3.3106    0.0000 C   0  0  0  0  0  0  0  0  0  0  0  0
   -5.5717    4.5079    0.0000 O   0  0  0  0  0  0  0  0  0  0  0  0
   -5.2533    1.9294    0.0000 C   0  0  0  0  0  0  0  0  0  0  0  0
   -6.7420    1.7456    0.0000 O   0  0  0  0  0  0  0  0  0  0  0  0
   -4.3498    0.7321    0.0000 C   0  0  0  0  0  0  0  0  0  0  0  0
   -2.5427   -1.6626    0.0000 O   0  0  0  0  0  0  0  0  0  0  0  0
   -1.6391   -2.8599    0.0000 C   0  0  0  0  0  0  0  0  0  0  0  0
   -2.2243   -4.2410    0.0000 C   0  0  0  0  0  0  0  0  0  0  0  0
   -1.3207   -5.4384    0.0000 C   0  0  0  0  0  0  0  0  0  0  0  0
   -1.9059   -6.8195    0.0000 O   0  0  0  0  0  0  0  0  0  0  0  0
    0.1680   -5.2545    0.0000 C   0  0  0  0  0  0  0  0  0  0  0  0
    0.7531   -3.8734    0.0000 C   0  0  0  0  0  0  0  0  0  0  0  0
    2.2418   -3.6895    0.0000 O   0  0  0  0  0  0  0  0  0  0  0  0
   -0.1504   -2.6761    0.0000 C   0  0  0  0  0  0  0  0  0  0  0  0
  1  2  2  0
  2  3  1  0
  3  4  1  0
  5  4  1  1
  5  6  1  0
  6  7  1  0
  7  8  1  1
  8  9  1  0
  7 10  1  0
 10 11  1  1
 10 12  1  0
 12 13  1  1
 12 14  1  0
 14 15  1  6
  3 16  2  0
 16 17  1  0
 17 18  2  0
 18 19  1  0
 19 20  2  0
 20 21  1  0
 20 22  1  0
 22 23  1  0
 22 24  2  0
 16 25  1  0
 25 26  1  0
 26 27  2  0
 27 28  1  0
 28 29  1  0
 28 30  2  0
 30 31  1  0
 31 32  1  0
 31 33  2  0
 33  2  1  0
 14  5  1  0
 24 17  1  0
 33 26  1  0
M  END
>  <identifier>  (95) 
CNP0180599.1

>  <canonical_smiles>  (95) 
O=C1C(O[C@@H]2O[C@H](CO)[C@H](O)[C@H](O)[C@H]2O)=C(C2=CC=C(O)C(O)=C2)OC2=CC(O)=CC(O)=C12

>  <standard_inchi>  (95) 
InChI=1S/C21H20O12/c22-6-13-15(27)17(29)18(30)21(32-13)33-20-16(28)14-11(26)4-8(23)5-12(14)31-19(20)7-1-2-9(24)10(25)3-7/h1-5,13,15,17-18,21-27,29-30H,6H2/t13-,15+,17+,18-,21+/m1/s1

>  <standard_inchi_key>  (95) 
OVSQVDMCBVZWGM-DTGCRPNFSA-N

>  <name>  (95) 
Hyperoside

>  <iupac_name>  (95) 
2-(3,4-dihydroxyphenyl)-5,7-dihydroxy-3-[(2~{S},3~{R},4~{S},5~{R},6~{R})-3,4,5-trihydroxy-6-(hydroxymethyl)tetrahydropyran-2-yl]oxy-chromen-4-one

>  <annotation_level>  (95) 
5

>  <total_atom_count>  (95) 
53

>  <heavy_atom_count>  (95) 
33

>  <molecular_weight>  (95) 
464.38

>  <exact_molecular_weight>  (95) 
464.09548

>  <molecular_formula>  (95) 
C21H20O12

>  <alogp>  (95) 
-0.54

>  <topological_polar_surface_area>  (95) 
210.51

>  <rotatable_bond_count>  (95) 
4

>  <hydrogen_bond_acceptors>  (95) 
12

>  <hydrogen_bond_donors>  (95) 
8

>  <hydrogen_bond_acceptors_lipinski>  (95) 
12

>  <hydrogen_bond_donors_lipinski>  (95) 
8

>  <lipinski_rule_of_five_violations>  (95) 
2

>  <aromatic_rings_count>  (95) 
3

>  <qed_drug_likeliness>  (95) 
0.23

>  <formal_charge>  (95) 
0

>  <fractioncsp3>  (95) 
0.29

>  <number_of_minimal_rings>  (95) 
4

>  <van_der_walls_volume>  (95) 
370.26

>  <contains_sugar>  (95) 
True

>  <contains_ring_sugars>  (95) 
True

>  <contains_linear_sugars>  (95) 
False

>  <murcko_framework>  (95) 
O1c2ccccc2CC(OC3OCCCC3)=C1c4ccccc4

>  <np_likeness>  (95) 
2.16

>  <chemical_class>  (95) 
Flavonoids

>  <chemical_sub_class>  (95) 
Flavonoid glycosides

>  <chemical_super_class>  (95) 
Phenylpropanoids and polyketides

>  <direct_parent_classification>  (95) 
Flavonoid-3-O-glycosides

>  <np_classifier_pathway>  (95) 
Shikimates and Phenylpropanoids

>  <np_classifier_superclass>  (95) 
Flavonoids

>  <np_classifier_class>  (95) 
Flavonols

>  <np_classifier_is_glycoside>  (95) 
True

>  <organisms>  (95) 
Abelmoschus manihot|Abutilon theophrasti|Acacia aulacocarpa|Acacia pycnantha|Acanthopanax gracilistylus|Acanthopanax sessiliflorum|Acer carpinifolium|Acer pictum subsp. okamotoanum|Aceratium megalospermum|Achyranthes aspera|Aconitum brevicalcaratum|Aconitum heterophylloides|Aconitum violaceum|Actinoplanes friuliensis|Adenocarpus foliolosus|Adenocarpus viscosus|Adiantum malesianum|Afrocarpus falcatus|Agapanthus inapertus|Agelas linnaei|Agelas nakamurai|Ageratina tomentella|Aglaia laxiflora|Agrimonia pilosa|Ailanthus giraldii|Alangium kurzii|Alangium premnifolium|Alaria esculenta|Albertisia papuana|Alectra parasitica|Alexandrium hiranoi|Allium neapolitanum|Allium victorialis|Aloe vulgaris|Alpinia allughas|Alternaria japonica|Alternaria kikuchiana|Ambrosia chamissonis|Amelanchier oligocarpa|Ammodendron conollyi|Amsinckia tessellata|Anacardium occidentale|Anacyclus tomentosus|Andrographis echioides|Anemone flaccida|Angelica keiskei|Angelica saxatilis|Angelica taiwaniana|Angelica tarokoensis|Anisopappus pinnatifidus|Anolis lineatopus|Anthopleura xanthogrammica|Anthoxanthum nitens|Anthyllis onobrychoides|Antillogorgia elisabethae|Aplysia punctata|Apocynum venetum|Arcytophyllum thymifolium|Ardisia neriifolia|Argania spinosa|Aromadendron elegans|Aronia melanocarpa|Artemisia afra|Artemisia annua L.|Artemisia argyi|Artemisia capillaris|Artemisia carvifolia|Artemisia ludoviciana subsp. mexicana|Artemisia montana|Artemisia princeps|Artemisia tournefortiana|Arthrophytum leptocladum|Asarum heterotropoides|Ascidia ahodori|Aspalathus linearis|Aspergillus falconensis|Aspergillus fischeri|Aspergillus mutabilis|Aspicilia caesiocinerea|Aspidosperma subincanum|Aster oharai|Asteriscus graveolens|Asterogyne martiana|Astragalus armatus|Astragalus asper|Astragalus cibarius|Astragalus complanatus|Astragalus goktschaicus|Atrophaneura polyeuctes|Atta cephalotes|Aucuba chinensis|Audouinia tentaculata|Aulacomnium androgynum|Aurelia aurita|Baccharis magellanica|Baccharis rosmarinifolia|Bacillus thuringiensis|Bacterium sa|Bauhinia glauca|Beilschmiedia volckii|Bellium bellidioides|Berkheya zeyheri|Beta vulgaris|Betula exilis|Bistorta vivipara|Bleekeria vitiensis|Blepharis sindica|Bombax ceiba|Botrydium granulatum|Botryosphaeria berengeriana|Bragantia wallichii|Bredemeyera brevifolia|Brickellia vernicosa|Bugula dentata|Bupleurum chinense|Burkholderia pyrrocinia|Byssothecium obiones|Caenorhabditis elegans|Callicarpa maingayi|Callistemon lanceolatus|Callistemon viminalis|Calodendrum capense|Calonectria cylindrospora|Camellia sinensis|Canella winterana|Caralluma stalagmifera|Carica dodecaphylla|Carica pennata|Carlina acaulis|Carpinus orientalis|Cassipourea gerrardii|Cassytha filiformis|Cassytha racemosa|Caulerpa serrulata|Cedronella canariensis|Celaenodendron mexicanum|Cellulomonas biazotea|Centaurea aspera|Centaurea calcitrapa|Centaurea huber-morathii|Cephalaria paphlagonica|Cephalaria uralensis|Ceramium rubrum|Ceratosoma brevicaudatum|Cereus dumortieri|Cereus polyrhizus|Chaetomium cochliodes|Chaetomium globosum|Chaetomium subaffine|Chelonia japonica|Chromolaena arnottiana|Chrysanthemum indicum|Chrysanthemum x morifolium|Chrysosplenium echinus|Chrysothamnus parryi|Circinotrichum falcatisporum|Cirsium dipsacolepis|Cirsium tanakae|Citrullus lanatus|Citrus tangerina|Cladiella australis|Cladonia fallax|Cladophora laetevirens|Cladosporium tenuissimum|Clausena lansium|Cleistopholis staudtii|Clethra macrophylla|Clutia richardiana|Cocculus diversifolius|Codonopsis pilosula|Coleus esquirolii|Colletotrichum lagenaria|Colobocentrotus atratus|Colochirus violaceus|Commiphora abyssinica|Consolida hohenackeri|Coprinellus flocculosus|Corbicula fluminea|Cordia curassavica|Cornus officinalis|Corticium simplex|Corydalis ochotensis|Cosmos pringlei|Cotula cinerea|Craibiodendron henryi|Crangon vulgaris|Craspedia pleiocephala|Crassocephalum mannii|Crassostrea gigas|Crataegus pinnatifida|Crataegus tanacetifolia|Cratena peregrina|Crinum kirkii|Crocus minimus|Crotalaria aegyptiaca|Crotalaria novae-hollandiae|Croton cascarilloides|Croton caudatus|Croton celtidifolius|Croton rhamnifolius|Croton tonkinensis|Cryptocarya aschersoniana|Cryptocarya lividula|Cryptolestes ferrugineus|Cunonia macrophylla|Curculigo pilosa|Cuscuta australis|Cuscuta chinensis|Cyberlindnera jadinii|Cycas armstrongii|Cycas revoluta|Cyclolobium clausseni|Cydonia oblonga|Cylindrospermopsis raciborskii|Cynara humilis|Cynoglossum germanicum|Cynometra lujae|Cystoseira crinita|Cystoseira jabukae|Cytisus scoparius|Daedalea juniperina|Dahlstedtia araripensis|Daphne giraldii|Daphne lancifolia|Dasystenella acanthina|Decachaeta thieleana|Delphinium andersoni|Delphinium shawurense|Dendrobium fuscescens|Dendroctonus ponderosae|Dermocybe canaria|Derris uliginosa|Descurainia sophia|Desmodium styracifolium|Dichotomaria marginata|Dicoma capensis|Dicranopteris linearis|Dictyota bartayresiana|Didemnum solidum|Didymium bahiense|Digitalis isabelliana|Dimerostemma brasilianum|Dioscorea althaeoides|Diospyros japonica|Diospyros kaki|Diotis maritima|Diphasia angolensis|Dipodium punctatum|Dipteryx odorata|Dolichopentas longiflora|Drosera adelae|Drymaria cordata|Dryopteris aitoniana|Dryopteris polylepis|Dysidea amblia|Dysidea tupha|Echinacea pallida|Echinosophora koreensis|Elaeocarpus fuscoides|Elegia deusta|Encyothalia cliftonii|Entada rheedei|Ephedra aphylla|Ephydatia syriaca|Epimedium brevicornu|Epimedium brevicornum|Epimedium davidii|Epimedium grandiflorum|Epimedium koreanum|Epimedium pubescens|Epimedium sagittatum|Epimedium sempervirens|Epimedium wushanense|Epipactis palustris|Eria subsessilis|Erica glauca|Ericameria diffusa|Eriobotrya japonica|Eriostemon thryptomenoides|Erodium stephanianum|Erylus trisphaerus|Erysimum odoratum|Erythrina sacleuxii|Eucalyptus globulus|Eucalyptus rostrata|Eucalyptus staigeriana|Eumorphia sericea|Eupatorium areolare|Eupatorium argentinum|Eupatorium birmanicum|Eupatorium lindleyanum|Euphorbia helioscopia|Euphorbia humifusa|Euphorbia latazi|Euphorbia pannonica|Euphorbia pekinensis|Euphorbia turczaninowii|Euphoria longan|Euphydryas cynthia|Euplotes raikovi|Eupolyphaga sinensis|Euthamia graminifolia|Eutreptia viridis|Eutypella scoparia|Evernia vulpina|Fagara rubescens|Fagraea gracilipes|Fallopia multiflora|Felimida luteorosea|Ficus cordata subsp. salicifolia|Ficus nervosa|Ficus sarmentosa var. thunbergii|Flemingia chappar|Foeniculum vulgare|Forsythia suspensa|Forsythia viridissima|Fragaria indica|Fragaria x ananassa|Fraxinus ornus|Frullania brittoniae|Frullania tamarisci|Fucus spiralis|Galenia africana|Galium dasypodum|Garcinia intermedia|Garcinia pseudoguttifera|Garcinia xipshuanbannaensis|Gardenia thailandica|Gardneria insularis|Gemmingia chinensis|Genista cinerea|Gentiana tibetica|Geranium carolinianum|Geranium niveum|Geranium sylvaticum|Geranium thunbergii|Geranium wilfordii|Gleditsia caspica|Glehnia littoralis|Globba malaccensis|Gloiopeltis furcata|Glycyrrhiza lepidota|Gnidia lamprantha|Gracilaria textorii|Graphis cognata|Grataegus pinnatifida|Guatteria boliviana|Gutierrezia lucida|Gutierrezia microcephala|Gymnema sylvestre|Gynoxys nitida|Habropetalum dawei|Haematopus ostralegus|Haliclona mucosa|Haliclona nigra|Halobacterium salinarum|Haplophyllum ferganicum|Haplophyllum ramosissimum|Hedychium villosum|Hedyosmum arborescens|Helichrysum graveolens|Helichrysum lepidissimum|Helichrysum mixtum|Heliotropium amplexicaule|Heliotropium eichwaldii|Helleborus multifidus|Herba cichorii|Heterotheca inuloides|Hippophae rhamnoides|Hippospongia communis|Holboellia fargesi|Hopea utilis|Houttuynia cordata|Humata pectinata|Humulus lupulus|Hylocereus ocamponis|Hylocereus undatus|Hylotelephium telephium|Hypericum ascyron|Hypericum humifusum|Hypericum japonicum|Hypericum jovis|Hypericum mysorense|Hypericum perforatum|Hypericum revolutum|Hypericum sampsonii|Hypericum scabrum|Hypericum sikokumontanum|Hypericum triquetrifolium|Hypomyces semitranslucens|Hyptis brevipes|Iberis amara|Ichthyothere terminalis|Ilex amara|Ilex lepta|Inella verrucosa|Inocybe geophylla|Ipomoea reptans|Ipomopsis polycladon|Ips paraconfusus|Ircinia spinosula|Iris florentina|Iryanthera paraensis|Isodon japonicus|Ixeris chinensis|Ixeris tamagawaensis|Jaborosa kurtzii|Jacobaea adonidifolia|Jacobaea vulgaris|Juglans regia|Juniperus brevifolia|Juniperus utahensis|Justicia ciliata|Kali turgidum|Kielmeyera coriacea|Kitaibelia vitifolia|Knautia montana|Knightia deplanchei|Knightia excelsa|Kuehneromyces mutabilis|Laccaria vinaceoavellanea|Lactarius quietus|Lactarius uvidus|Lactobacillus delbrueckii subsp. bulgaricus|Lactuca sativa|Lafoensia glyptocarpa|Lamellodysidea herbacea|Larix decidua|Lathyrus nissolia|Latua pubiflora|Laurencia caraibica|Laurencia distichophylla|Lechevalieria aerocolonigenes|Leishmania major|Lenzites betulinus|Leontopodium nanum|Leonurus glaucescens|Leonurus heterophyllus|Leonurus persicus|Lepidium draba|Lepisorus thunbergianus|Lepraria xanthina|Lesquerella auriculata|Leucas neufliseana|Leuzea centauroides|Libocedrus plumosa|Licania pittieri|Licaria armeniaca|Ligularia lamarum|Lippia mexicana|Lithospermum officinale|Litsea glutinosa|Litsea salicifolia|Litsea triflora|Livistona australis|Lobelia st|Lonchocarpus orotinus|Lonicera confusa|Lonicera confuse|Lonicera dasystyla|Lonicera fulvotomentosa|Lonicera hypoglauca|Lonicera japonica|Lonicera macranthoides|Lysiana subfalcata|Lysimachia christinae|Maba buxifolia|Macaranga peltata|Macaranga tanarius|Machaerium nictitans|Magnolia sieboldii|Magnolia sprengeri|Mallotus villosus|Malus domestica|Malus pumila|Malva sylvestris|Mammillaria magnimamma|Matricaria suffruticosa|Matthiola fruticulosa|Meconopsis horridula|Melanelixia fuliginosa subsp. glabratula|Mesembryanthemum anatomicum|Mesembryanthemum expansum|Metalasia cymbifolia|Metapenaeus bennettae|Microciona eurypa|Microglossa pyrrhopappa|Micromelum tephrocarpum|Micromeria pineolens|Mitragyna speciosa|Mitrephora diversifolia|Monanchora pulchra|Monascus pilosus|Monochaetia compta|Morus alba|Munronia delavayi|Myrica multiflora|Myrsine africana|Narcissus obesus|Nelumbo nucifera|Nemalion vermiculare|Neolentinus lepideus|Neonectria candida|Nepenthes thorelii|Nerium oleander|Nicotiana debneyi|Nidula candida|Nostoc spongiaeforme|Oceanapia ramsayi|Ocotea pulchella|Ophiarthrum elegans|Ophiocoma scolopendrina|Oreoherzogia fallax|Ormosia balansae|Osmorhiza aristata|Osteophloeum platyspermum|Osteospermum muricatum|Ostryopsis davidiana|Osyris abyssinica|Oxera splendida|Paeonia rockii|Panorpa japonica|Parablechnum minus|Paraburkholderia caryophylli|Paradendryphiella salina|Paralemnalia clavata|Parerythropodium fulvum|Patersonia fragilis|Pelargonium graveolens|Peltogyne porphyrocardia|Penicillium alutaceum|Penicillium citreonigrum|Penicillium crustaceum|Penicillium kewense|Penicillium stipitatum|Penstemon gentianoides|Peperomia proctorii|Peperomia vulcanica|Perenniporia subacida|Periploca calophylla|Peritassa compta|Petriella sordida|Peucedanum praeruptorum|Peyrousea umbellata|Peyssonnelia caulifera|Phaeolus schweinitzii|Phebalium gracile|Phebalium stenophyllum|Phellodendron amurense|Phlegmariurus tetrastichus|Phorbas amaranthus|Phyllanthus discoideus|Phyllopsora haemophaea|Physalis edulis|Picea rubens|Picris conyzoides|Pinus brutia var. eldarica|Pinus densiflora var. densiflora|Piper taboganum|Pistacia atlantica|Plantago lanceolata|Platonia insignis|Platycarpha glomerata|Platycarya strobilacea|Plectocephalus chilensis|Plenodomus tracheiphilus|Plexaura homomalla|Polygala reinii|Polygonatum multiflorum|Polygonum aviculare|Polygonum cuspidatum|Polygonum senegalense|Polymnia uvedalia|Polysiphonia elongata|Popillia japonica|Populus ussuriensis|Premna tomentosa|Prosopis spicigera|Prumnopitys ferruginoides|Prunella vulgaris|Prunus domestica|Prunus dulcis|Prunus persica|Pseudaegle trifoliata|Pseudeurotium zonatum|Pseudophryne coriacea|Psiadia dentata|Psittacanthus cucullaris|Psorospermum adamauense|Psychotria serpens|Pteris fauriei|Pteris radiata|Ptilidium ciliare|Pycnandra acuminata|Pyrola japonica|Pyrus communis|Quercus sessiliflora|Quercus suber|Ramalina sayreana|Ranunculus sardous|Ratibida mexicana|Reaumuria hirtella|Relbunium atherodes|Remijia pedunculata|Retama duriaei|Rhamnus|Rheedia acuminata|Rhizopus stolonifer|Rhododendron dauricum|Rhododendron ellipticum|Rhododendron tomentosum|Rhynchosporium orthosporum|Rhytidoponera metallica|Ribes nigrum|Roboastra tigris|Rosa chinensis|Rosa rugosa|Rubia schumanniana|Rubus idaeus|Rubus loganobaccus|Rubus xanthocarpus|Rudbeckia hirta|Ruditapes philippinarum|Ruellia rosea|Rumex acetosa|Rumex obtusifolius|Sabal causiarum|Saccharopolyspora spinosa|Sagittaria sagittifolia|Salacia elliptica|Salacia longipes|Salacia madagascariensis|Salvia digitaloides|Salvia munzii|Sanguisorba officinalis|Saprospira grandis|Saracha viscosa|Sarcococca vagans|Sarcodon aspratus|Sarcopoterium spinosum|Sarracenia purpurea|Saururus chinensis|Saussurea amara|Saussurea carthamoides|Saussurea involucrata|Scabiosa succisa|Schisandra chinensis|Scilla dracomontana|Scilla maritima|Scolymus hispanicus|Scopolia hladnikiana|Scutellaria seleriana|Sedum sarmentosum|Senecio densiflorus|Senecio sarracenicus|Senecio scandens|Sia ferox|Sida veronicaefolia|Sidastrum paniculatum|Sideritis euboea|Silene tatarica|Sinopodophyllum emodi|Sinularia molesta|Sisyrinchium californicum|Solanum acaule|Solanum giganteum|Solanum racemigerum|Solanum toxicarum|Solanum transcaucasicum|Sonchus ortunoi|Sophora exigua|Sophora moorcroftiana|Sophora tometosa|Sorbus aucuparia|Sorbus tianschanica|Spinulum annotinum|Spodoptera eridania|Spongia australis|Spongia bilamellata|Sporobolus cynosuroides|Stelletta inconspicua|Stephania elegans|Stephania epigaea|Stevia purpurea|Stipa vaseyi|Streblognathus aethiopicus|Streptomyces chattanoogensis|Streptomyces clavifer|Streptomyces diastatochromogenes|Streptomyces eurythermus|Streptomyces griseovariabilis|Streptomyces kanamyceticus|Streptomyces libani|Streptomyces rochei|Streptomyces setonensis|Strophanthus preussii|Stylissa flabelliformis|Styrax ferrugineus|Suillus bovinus|Suillus tridentinus|Swartzia madagascariensis|Swertia delavayi|Swertia swertopsis|Symphyocladia latiuscula|Synoicum pulmonaria|Tamarix aphylla|Taraxacum bicorne|Taraxacum borealisinense|Taraxacum coreanum|Taraxacum mongolicum|Taraxacum officinale|Taraxacum platycarpum|Targionia hypophylla|Taxodium distichum|Taxus brevifolia|Tecoma pentaphylla|Tetrahymena pyriformis|Teucrium pestalozzae|Thalictrum cultratum|Theobroma cacao|Thermopsis alpina|Thorecta marginalis|Torreya jackii|Trachelospermum lucidum|Trichia favoginea|Trichilia hirta|Trichoderma koningi|Trichoderma longibrachiatum|Trichoderma polysporum|Trifolium apertum|Trifolium repens|Tripodanthus acutifolius|Tsuga chinensis|Turbinaria ornata|Turricula parryi|Tussilago farfara|Tylophora indica|Typha domingensis|Udotea petiolata|Ulmus americana|Uncaria elliptica|Uncaria laevigata|Uncaria sinensis|Ungnadia speciosa|Usnea undulata|Utricularia australis|Vaccinium corymbosum|Vaccinium macrocarpon|Vaccinium vitis-idaea|Valeriana fedtschenkoi|Vallota purpurea|Vauquelinia corymbosa|Venus casina|Veratrum dahuricum|Vernonia anisochaetoides|Vernonia menthaefolia|Veronica pectinata|Verpa digitaliformis|Viburnum opulus|Viburnum tinus|Vidalia volubilis|Viguiera annua|Viguiera procumbens|Vincetoxicum hirundinaria|Virgilia divaricata|Vismia jefensis|Vitex negundo|Vitex pinnata|Vitis aestivalis|Vitis labrusca|Vitis rotundifolia|Vitis vinifera|Wedelia prostrata|Wikstroemia chamaedaphne|Wilcoxia viperina|Wolfiporia cocos|Xanthium pungens|Xanthoria aureola|Xanthosoma violaceum|Xylaria mellissii|Zanthoxylum bungeanum|Zanthoxylum fagara|Zanthoxylum liebmannianum|Zanthoxylum piperitum|Zanthoxylum schinifolium|Zeora sordida|Ziziphus jujuba|Ziziphus mauritiana|microtea debilis

>  <collections>  (95) 
ANPDB|AnalytiCon Discovery NPs|Australian natural products|BIOFACQUIM|CMAUP (cCollective molecular activities of useful plants)|ChEBI NPs|ChemSpider NPs|ETM (Ethiopian Traditional Medicine) DB|FooDB|GNPS (Global Natural Products Social Molecular Networking)|Latin America dataset|NANPDB (Natural Products from Northern African Sources)|NPASS|NuBBEDB|Phenol-explorer|Phyto4Health|SANCDB|Super Natural II|TCMDB-Taiwan (Traditional Chinese Medicine database)|TIPdb (database of Taiwan indigenous plants)|VietHerb|Watermelon

>  <dois>  (95) 
10.1007/s00217-005-1204-6|10.1016/0031-9422(86)80079-6|10.1016/0031-9422(93)85448-z|10.1016/S0031-9422(96)00329-9|10.1016/S0305-1978(99)00113-1|10.1016/j.bmcl.2015.04.003|10.1016/j.bmcl.2015.05.089|10.1016/j.fitote.2016.08.013|10.1016/j.foodchem.2020.128444|10.1016/j.phytochem.2005.07.019|10.1016/j.phytochem.2007.03.010|10.1016/j.phytochem.2009.07.020|10.1016/j.phytochem.2015.08.017|10.1016/s0031-9422(00)85421-7|10.1021/np200001x|10.1021/np3001317|10.1021/np400134z|10.1021/np50051a037|10.1021/np50076a027|10.1021/np50096a018|10.1021/np970025k|10.1021/np980467b|10.1080/14786419.2011.587188|10.1111/1750-3841.14660|10.3390/molecules200815330|10.3998/ark.5550190.0005.616

>  <synonyms>  (95) 
482-36-0|Hyperin|Hyperosid|Quercetin 3-galactoside|Hyperozide|Quercetin 3-O-beta-D-galactopyranoside|Hyperasid|Jyperin|QUERCETIN 3-B-D-GALACTOSIDE|NSC 407304|UNII-8O1CR18L82|CCRIS 9339|CHEBI:67486|8O1CR18L82|EINECS 207-580-6|MFCD00016933|2-(3|4-dihydroxyphenyl)-5|7-dihydroxy-3-(((2S|3R|4S|5R|6R)-3|4|5-trihydroxy-6-(hydroxymethyl)tetrahydro-2H-pyran-2-yl)oxy)-4H-chromen-4-one|CHEMBL251254|2-(3|4-Dihydroxyphenyl)-3-(beta-D-galactopyranosyloxy)-5|7-dihydroxy-4H-1-benzopyran-4-one|2-(3|4-dihydroxyphenyl)-5|7-dihydroxy-3-(2S|3R|4S|5R|6R)-3|4|5-trihydroxy-6-(hydroxymethyl)oxan-2-yloxychromen-4-one|HYPEROSIDE (USP-RS)|HYPEROSIDE USP-RS|Isoquercitrin|3|3'|4'|5|7-Pentahydroxyflavone 3-D-galactoside|4H-1-Benzopyran-4-one| 2-(3|4-dihydroxyphenyl)-3-(.beta.-D-galactopyranosyloxy)-5|7-dihydroxy-|2-(3|4-dihydroxyphenyl)-5|7-dihydroxy-4-oxo-4H-chromen-3-yl beta-D-galactopyranoside|2-3|4-bis(oxidanyl)phenyl-3-(2S|3R|4S|5R|6R)-6-(hydroxymethyl)-3|4|5-tris(oxidanyl)oxan-2-yloxy-5|7-bis(oxidanyl)chromen-4-one|p Hyperin|Hyperin|(S)|BIDD:PXR0057|MLS000759538|2-yloxy)-4H-chromen-4-one|jm5b01461| Compound 84|MEGxp0_000392|SCHEMBL1250514|ACon1_000623|BDBM429266|DTXSID501028789|HMS2051H17|HY-N0452|BDBM50241367|s5453|AKOS015896780|6-(hydroxymethyl)tetrahydro-2H-pyran-|CCG-100970|NC00220|NCGC00168902-03|AS-56199|SMR000466394|2-(3|4-dihydroxyphenyl)-5|7-dihydroxy-|1ST000529|QUERCETIN 3-O-.BETA.-D-GALACTOSIDE|CS-0008982|NS00079301|Quercetin 3-D-galactoside| >=97.0% (HPLC)|AB00639910-03|3-((2S|3R|4S|5R|6R)-3|4|5-trihydroxy-|HYPEROSIDE (CONSTITUENT OF ST. JOHN'S WORT)|Hyperoside| primary pharmaceutical reference standard|Q-100530|Q5242815|BRD-K84955386-001-01-1|3-O-b-D-Galactopyranosyloxy-3'|4'|5|7-tetrahydroxyflavone|HYPEROSIDE (CONSTITUENT OF HAWTHORN LEAF WITH FLOWER)|Hyperoside| United States Pharmacopeia (USP) Reference Standard|2-(3|4-Dihydroxyphenyl)-5|7-dihydroxy-4-oxo-4H-chromen-3-yl hexopyranoside #|2-(3|4-DIHYDROXYPHENYL)-3-(.BETA.-D-GALACTOPYRANOSYLOXY)-5|7-DIHYDROXY-4H-1-BENZOPYRAN-4-ONE|J6O|hyperin|quercetin-3-beta-galactoside|Quercetin-3-O-\u221a\u00e9\u00ac\u2264-D-galactoside Hyperin|hyperoside

>  <cas>  (95) 
482-36-0

$$$$

     RDKit          2D

 41 45  0  0  0  0  0  0  0  0999 V2000
    5.2073   -2.1126    0.0000 O   0  0  0  0  0  0  0  0  0  0  0  0
    5.5949   -0.6636    0.0000 C   0  0  0  0  0  0  0  0  0  0  0  0
    4.5338    0.3966    0.0000 O   0  0  0  0  0  0  0  0  0  0  0  0
    3.0851    0.0078    0.0000 C   0  0  0  0  0  0  0  0  0  0  0  0
    2.0240    1.0681    0.0000 C   0  0  0  0  0  0  0  0  0  0  0  0
    0.5753    0.6793    0.0000 O   0  0  0  0  0  0  0  0  0  0  0  0
   -0.4858    1.7395    0.0000 C   0  0  0  0  0  0  0  0  0  0  0  0
   -1.9345    1.3507    0.0000 O   0  0  0  0  0  0  0  0  0  0  0  0
   -2.3222   -0.0983    0.0000 C   0  0  0  0  0  0  0  0  0  0  0  0
   -3.7709   -0.4871    0.0000 C   0  0  0  0  0  0  0  0  0  0  0  0
   -4.8320    0.5731    0.0000 C   0  0  0  0  0  0  0  0  0  0  0  0
   -4.4443    2.0221    0.0000 C   0  0  0  0  0  0  0  0  0  0  0  0
   -5.5054    3.0824    0.0000 C   0  0  0  0  0  0  0  0  0  0  0  0
   -6.9541    2.6936    0.0000 C   0  0  0  0  0  0  0  0  0  0  0  0
   -8.0152    3.7538    0.0000 O   0  0  0  0  0  0  0  0  0  0  0  0
   -7.3418    1.2445    0.0000 C   0  0  0  0  0  0  0  0  0  0  0  0
   -8.7905    0.8557    0.0000 O   0  0  0  0  0  0  0  0  0  0  0  0
   -6.2807    0.1843    0.0000 C   0  0  0  0  0  0  0  0  0  0  0  0
   -4.1586   -1.9362    0.0000 O   0  0  0  0  0  0  0  0  0  0  0  0
   -3.0975   -2.9964    0.0000 C   0  0  0  0  0  0  0  0  0  0  0  0
   -3.4851   -4.4455    0.0000 C   0  0  0  0  0  0  0  0  0  0  0  0
   -2.4240   -5.5057    0.0000 C   0  0  0  0  0  0  0  0  0  0  0  0
   -2.8117   -6.9547    0.0000 O   0  0  0  0  0  0  0  0  0  0  0  0
   -0.9753   -5.1169    0.0000 C   0  0  0  0  0  0  0  0  0  0  0  0
   -0.5877   -3.6679    0.0000 C   0  0  0  0  0  0  0  0  0  0  0  0
    0.8611   -3.2790    0.0000 O   0  0  0  0  0  0  0  0  0  0  0  0
   -1.6487   -2.6076    0.0000 C   0  0  0  0  0  0  0  0  0  0  0  0
   -1.2611   -1.1586    0.0000 C   0  0  0  0  0  0  0  0  0  0  0  0
    0.1876   -0.7698    0.0000 O   0  0  0  0  0  0  0  0  0  0  0  0
   -0.0981    3.1886    0.0000 C   0  0  0  0  0  0  0  0  0  0  0  0
   -1.1592    4.2488    0.0000 O   0  0  0  0  0  0  0  0  0  0  0  0
    1.3506    3.5774    0.0000 C   0  0  0  0  0  0  0  0  0  0  0  0
    1.7383    5.0264    0.0000 O   0  0  0  0  0  0  0  0  0  0  0  0
    2.4117    2.5171    0.0000 C   0  0  0  0  0  0  0  0  0  0  0  0
    3.8604    2.9059    0.0000 O   0  0  0  0  0  0  0  0  0  0  0  0
    7.0437   -0.2748    0.0000 C   0  0  0  0  0  0  0  0  0  0  0  0
    7.4313    1.1743    0.0000 C   0  0  0  0  0  0  0  0  0  0  0  0
    8.8801    1.5631    0.0000 C   0  0  0  0  0  0  0  0  0  0  0  0
    9.9411    0.5028    0.0000 C   0  0  0  0  0  0  0  0  0  0  0  0
    9.5535   -0.9462    0.0000 C   0  0  0  0  0  0  0  0  0  0  0  0
    8.1047   -1.3350    0.0000 C   0  0  0  0  0  0  0  0  0  0  0  0
  1  2  2  0
  2  3  1  0
  3  4  1  0
  5  4  1  1
  5  6  1  0
  6  7  1  0
  7  8  1  1
  8  9  1  0
  9 10  2  0
 10 11  1  0
 11 12  2  0
 12 13  1  0
 13 14  2  0
 14 15  1  0
 14 16  1  0
 16 17  1  0
 16 18  2  0
 10 19  1  0
 19 20  1  0
 20 21  2  0
 21 22  1  0
 22 23  1  0
 22 24  2  0
 24 25  1  0
 25 26  1  0
 25 27  2  0
 27 28  1  0
 28 29  2  0
  7 30  1  0
 30 31  1  6
 30 32  1  0
 32 33  1  1
 32 34  1  0
 34 35  1  1
  2 36  1  0
 36 37  2  0
 37 38  1  0
 38 39  2  0
 39 40  1  0
 40 41  2  0
 34  5  1  0
 41 36  1  0
 28  9  1  0
 18 11  1  0
 27 20  1  0
M  END
>  <identifier>  (96) 
CNP0383187.1

>  <canonical_smiles>  (96) 
O=C(OC[C@H]1O[C@@H](OC2=C(C3=CC=C(O)C(O)=C3)OC3=CC(O)=CC(O)=C3C2=O)[C@H](O)[C@@H](O)[C@H]1O)C1=CC=CC=C1

>  <standard_inchi>  (96) 
InChI=1S/C28H24O13/c29-14-9-17(32)20-18(10-14)39-25(13-6-7-15(30)16(31)8-13)26(22(20)34)41-28-24(36)23(35)21(33)19(40-28)11-38-27(37)12-4-2-1-3-5-12/h1-10,19,21,23-24,28-33,35-36H,11H2/t19-,21+,23+,24-,28+/m1/s1

>  <standard_inchi_key>  (96) 
PCWHVEGCZALKKT-LPLXGARPSA-N

>  <name>  (96) 
[(2R,3R,4S,5R,6S)-6-{[2-(3,4-dihydroxyphenyl)-5,7-dihydroxy-4-oxo-4H-chromen-3-yl]oxy}-3,4,5-trihydroxyoxan-2-yl]methyl benzoate

>  <iupac_name>  (96) 
[(2~{R},3~{R},4~{S},5~{R},6~{S})-6-[2-(3,4-dihydroxyphenyl)-5,7-dihydroxy-4-oxo-chromen-3-yl]oxy-3,4,5-trihydroxy-tetrahydropyran-2-yl]methyl benzoate

>  <annotation_level>  (96) 
5

>  <total_atom_count>  (96) 
65

>  <heavy_atom_count>  (96) 
41

>  <molecular_weight>  (96) 
568.49

>  <exact_molecular_weight>  (96) 
568.12169

>  <molecular_formula>  (96) 
C28H24O13

>  <alogp>  (96) 
1.33

>  <topological_polar_surface_area>  (96) 
216.58

>  <rotatable_bond_count>  (96) 
6

>  <hydrogen_bond_acceptors>  (96) 
13

>  <hydrogen_bond_donors>  (96) 
7

>  <hydrogen_bond_acceptors_lipinski>  (96) 
13

>  <hydrogen_bond_donors_lipinski>  (96) 
7

>  <lipinski_rule_of_five_violations>  (96) 
3

>  <aromatic_rings_count>  (96) 
4

>  <qed_drug_likeliness>  (96) 
0.13

>  <formal_charge>  (96) 
0

>  <fractioncsp3>  (96) 
0.21

>  <number_of_minimal_rings>  (96) 
5

>  <van_der_walls_volume>  (96) 
460.81

>  <contains_sugar>  (96) 
True

>  <contains_ring_sugars>  (96) 
True

>  <contains_linear_sugars>  (96) 
False

>  <murcko_framework>  (96) 
O1c2ccccc2CC(OC3OC(COCc4ccccc4)CCC3)=C1c5ccccc5

>  <np_likeness>  (96) 
1.65

>  <chemical_class>  (96) 
Flavonoids

>  <chemical_sub_class>  (96) 
Flavonoid glycosides

>  <chemical_super_class>  (96) 
Phenylpropanoids and polyketides

>  <direct_parent_classification>  (96) 
Flavonoid-3-O-glycosides

>  <np_classifier_pathway>  (96) 
Shikimates and Phenylpropanoids

>  <np_classifier_superclass>  (96) 
Flavonoids

>  <np_classifier_class>  (96) 
Flavonols

>  <np_classifier_is_glycoside>  (96) 
True

>  <organisms>  (96) 
Vauquelinia corymbosa

>  <collections>  (96) 
BIOFACQUIM|Latin America dataset|Super Natural II

>  <dois>  (96) 
10.3390/molecules200815330

>  <synonyms>  (96) 
SCHEMBL14354545|Quercetin-3-O-(6''-benzoyl)-b-galactoside

>  <cas>  (96) 
nan

$$$$

     RDKit          2D

 32 35  0  0  0  0  0  0  0  0999 V2000
    5.0334   -1.1218    0.0000 C   0  0  0  0  0  0  0  0  0  0  0  0
    4.2173    0.1368    0.0000 C   0  0  0  0  0  0  0  0  0  0  0  0
    2.7193    0.0593    0.0000 O   0  0  0  0  0  0  0  0  0  0  0  0
    1.9032    1.3179    0.0000 C   0  0  0  0  0  0  0  0  0  0  0  0
    0.4052    1.2404    0.0000 O   0  0  0  0  0  0  0  0  0  0  0  0
   -0.2767   -0.0956    0.0000 C   0  0  0  0  0  0  0  0  0  0  0  0
   -1.7747   -0.1731    0.0000 C   0  0  0  0  0  0  0  0  0  0  0  0
   -2.5908    1.0855    0.0000 C   0  0  0  0  0  0  0  0  0  0  0  0
   -1.9088    2.4216    0.0000 C   0  0  0  0  0  0  0  0  0  0  0  0
   -2.7249    3.6801    0.0000 C   0  0  0  0  0  0  0  0  0  0  0  0
   -4.2229    3.6027    0.0000 C   0  0  0  0  0  0  0  0  0  0  0  0
   -5.0390    4.8613    0.0000 O   0  0  0  0  0  0  0  0  0  0  0  0
   -4.9048    2.2666    0.0000 C   0  0  0  0  0  0  0  0  0  0  0  0
   -6.4028    2.1892    0.0000 O   0  0  0  0  0  0  0  0  0  0  0  0
   -4.0888    1.0081    0.0000 C   0  0  0  0  0  0  0  0  0  0  0  0
   -2.4566   -1.5091    0.0000 O   0  0  0  0  0  0  0  0  0  0  0  0
   -1.6405   -2.7677    0.0000 C   0  0  0  0  0  0  0  0  0  0  0  0
   -2.3224   -4.1037    0.0000 C   0  0  0  0  0  0  0  0  0  0  0  0
   -1.5064   -5.3623    0.0000 C   0  0  0  0  0  0  0  0  0  0  0  0
   -2.1883   -6.6983    0.0000 O   0  0  0  0  0  0  0  0  0  0  0  0
   -0.0084   -5.2848    0.0000 C   0  0  0  0  0  0  0  0  0  0  0  0
    0.6735   -3.9488    0.0000 C   0  0  0  0  0  0  0  0  0  0  0  0
    2.1715   -3.8713    0.0000 O   0  0  0  0  0  0  0  0  0  0  0  0
   -0.1425   -2.6902    0.0000 C   0  0  0  0  0  0  0  0  0  0  0  0
    0.5394   -1.3542    0.0000 C   0  0  0  0  0  0  0  0  0  0  0  0
    2.0374   -1.2767    0.0000 O   0  0  0  0  0  0  0  0  0  0  0  0
    2.5852    2.6539    0.0000 C   0  0  0  0  0  0  0  0  0  0  0  0
    1.7691    3.9125    0.0000 O   0  0  0  0  0  0  0  0  0  0  0  0
    4.0832    2.7314    0.0000 C   0  0  0  0  0  0  0  0  0  0  0  0
    4.7651    4.0674    0.0000 O   0  0  0  0  0  0  0  0  0  0  0  0
    4.8992    1.4728    0.0000 C   0  0  0  0  0  0  0  0  0  0  0  0
    6.3972    1.5502    0.0000 O   0  0  0  0  0  0  0  0  0  0  0  0
  2  1  1  6
  2  3  1  0
  3  4  1  0
  4  5  1  1
  5  6  1  0
  6  7  2  0
  7  8  1  0
  8  9  2  0
  9 10  1  0
 10 11  2  0
 11 12  1  0
 11 13  1  0
 13 14  1  0
 13 15  2  0
  7 16  1  0
 16 17  1  0
 17 18  2  0
 18 19  1  0
 19 20  1  0
 19 21  2  0
 21 22  1  0
 22 23  1  0
 22 24  2  0
 24 25  1  0
 25 26  2  0
  4 27  1  0
 27 28  1  6
 27 29  1  0
 29 30  1  6
 29 31  1  0
 31 32  1  1
 31  2  1  0
 25  6  1  0
 15  8  1  0
 24 17  1  0
M  END
>  <identifier>  (97) 
CNP0171505.1

>  <canonical_smiles>  (97) 
C[C@@H]1O[C@@H](OC2=C(C3=CC=C(O)C(O)=C3)OC3=CC(O)=CC(O)=C3C2=O)[C@H](O)[C@H](O)[C@H]1O

>  <standard_inchi>  (97) 
InChI=1S/C21H20O11/c1-7-15(26)17(28)18(29)21(30-7)32-20-16(27)14-12(25)5-9(22)6-13(14)31-19(20)8-2-3-10(23)11(24)4-8/h2-7,15,17-18,21-26,28-29H,1H3/t7-,15-,17+,18+,21-/m0/s1

>  <standard_inchi_key>  (97) 
OXGUCUVFOIWWQJ-HQBVPOQASA-N

>  <name>  (97) 
quercitrin

>  <iupac_name>  (97) 
2-(3,4-dihydroxyphenyl)-5,7-dihydroxy-3-[(2~{S},3~{R},4~{R},5~{R},6~{S})-3,4,5-trihydroxy-6-methyl-tetrahydropyran-2-yl]oxy-chromen-4-one

>  <annotation_level>  (97) 
5

>  <total_atom_count>  (97) 
52

>  <heavy_atom_count>  (97) 
32

>  <molecular_weight>  (97) 
448.38

>  <exact_molecular_weight>  (97) 
448.10056

>  <molecular_formula>  (97) 
C21H20O11

>  <alogp>  (97) 
0.49

>  <topological_polar_surface_area>  (97) 
190.28

>  <rotatable_bond_count>  (97) 
3

>  <hydrogen_bond_acceptors>  (97) 
11

>  <hydrogen_bond_donors>  (97) 
7

>  <hydrogen_bond_acceptors_lipinski>  (97) 
11

>  <hydrogen_bond_donors_lipinski>  (97) 
7

>  <lipinski_rule_of_five_violations>  (97) 
2

>  <aromatic_rings_count>  (97) 
3

>  <qed_drug_likeliness>  (97) 
0.28

>  <formal_charge>  (97) 
0

>  <fractioncsp3>  (97) 
0.29

>  <number_of_minimal_rings>  (97) 
4

>  <van_der_walls_volume>  (97) 
362.47

>  <contains_sugar>  (97) 
True

>  <contains_ring_sugars>  (97) 
True

>  <contains_linear_sugars>  (97) 
False

>  <murcko_framework>  (97) 
O1c2ccccc2CC(OC3OCCCC3)=C1c4ccccc4

>  <np_likeness>  (97) 
2.17

>  <chemical_class>  (97) 
Flavonoids

>  <chemical_sub_class>  (97) 
Flavonoid glycosides

>  <chemical_super_class>  (97) 
Phenylpropanoids and polyketides

>  <direct_parent_classification>  (97) 
Flavonoid-3-O-glycosides

>  <np_classifier_pathway>  (97) 
Shikimates and Phenylpropanoids

>  <np_classifier_superclass>  (97) 
Flavonoids

>  <np_classifier_class>  (97) 
Flavonols

>  <np_classifier_is_glycoside>  (97) 
True

>  <organisms>  (97) 
Aaptos aaptos|Acacia confusa|Acacia ixiophylla|Acacia nilotica|Acanthella acuta|Acanthopanax senticosus|Acanthophyllum elatius|Acanthospermum glabratum|Acanthus ilicifolius|Acer carpinifolium|Acer pictum subsp. okamotoanum|Aceratium megalospermum|Aconitum gigas|Aconitum nevadense|Aconitum seravschanicum|Aconitum tasiromontanum|Acremonium luzulae|Actinidia chinensis|Actinidia deliciosa|Actinoplanes friuliensis|Adansonia grandidieri|Adina sessilifolia|Aesculus hippocastanum|Agastache rugosa|Agelas conifera|Ageratina dendroides|Agrimonia pilosa|Ajuga genevensis|Alangium grisolleoides|Alangium premnifolium|Alaria esculenta|Albizia Julibrissin|Alexandrium hiranoi|Allium cepa|Allium fistulosum|Alnus japonica|Aloe africana|Aloe ferox|Aloe spicata|Aloe vera|Alpinia officinarum|Alseodaphne corneri|Alternaria kikuchiana|Amomum longiligulare|Amomum micranthum|Amomum villosum|Amomum xanthioides|Amyris texana|Anabaena minutissima|Anacyclus tomentosus|Angelica keiskei|Angelica lucida|Angelica taiwaniana|Angelica tarokoensis|Annella reticulata|Annona ambotay|Annona impressivenia|Anthoxanthum odoratum|Anthyllis onobrychoides|Aphyllocladus denticulatus|Apium graveolens|Aplysia parvula|Aplysia punctata|Araliopsis soyauxii|Arctium lappa|Ardisia colorata|Ardisia japonica|Arnica acaulis|Aronia arbutifolia|Artemisia annua|Artemisia capillaris|Artemisia klotzchiana|Artemisia ludoviciana subsp. mexicana|Artemisia mesatlantica|Arum alpinum|Asparagus officinalis|Aspergillus fischeri|Aspergillus panamensis|Aspergillus unguis|Aspergillus wentii|Asphodelus albus|Aster oharai|Aster sedifolius|Astragalus dissectus|Astragalus goktschaicus|Astragalus interpositus|Astragalus membranaceus|Aulacocephalus temmincki|Austrocedrus chilensis|Bassia muricata|Bauhinia glauca|Bellium bellidioides|Bersama yangambiensis|Betula pendula|Bidens tripartita|Bitis gabonica|Bombax ceiba|Boronia coerulescens|Boronia pinnata|Botryotrichum piluliferum|Bragantia wallichii|Brassica napus|Brevibacterium linens|Briareum violacea|Brickellia glutinosa|Bromelia plumieri|Bunias orientalis|Burkholderia gladioli|Byrsonima coccolobifolia|Caesalpinia decapetala|Caesalpinia pulcherrima|Callistemon viminalis|Calophyllum inophyllum|Calycopteris floribunda|Camellia sinensis|Capnoides sempervirens|Capsicum annuum|Carpinus orientalis|Cassia kleinii|Castanea vesca|Castanopsis sclerophylla|Casuarina equisetifolia|Caulocystis cephalornithos|Ceanothus sanguineus|Centaurea calcitrapa|Centella asiatica|Cephalotaxus koreana|Cereus candicans|Chaetomium cochliodes|Chamerion angustifolium|Chelidonium majus|Chelonanthus alatus|Chelonia japonica|Chromodoris inornata|Chromodoris lochi|Chrysanthemum indicum|Chrysanthemum x morifolium|Chrysocoma tenuifolia|Cinamomum cassia|Cinnamomum aromaticum|Cladosiphon decipiens|Cleistanthus indochinensis|Cleistopholis staudtii|Clibadium mexiae|Coleus esquirolii|Colobocentrotus atratus|Colochirus violaceus|Conocephalum japonicum|Consolida hohenackeri|Conus marmoreus|Coprinellus flocculosus|Coprinopsis cinerea|Cordylanthus kingii|Coriandrum sativum|Cornus kousa|Corticium simplex|Corydalis ochotensis|Cotula cinerea|Craspedia pleiocephala|Cratena peregrina|Crinipellis scabella|Croton cumingii|Cryptocarya alba|Cryptocarya lividula|Cryptotaenia japonica|Cupaniopsis macropetala|Curio ficoides|Curvularia coicis|Cuscuta australis|Cuscuta japonica|Cynara humilis|Cynoglossum germanicum|Cyrtomium falcatum|Cystophora scalaris|Cytophaga hutchinsoni|Daphniphyllum paxianum|Davallia mariesii|Dehaasia longipedicellata|Delphinium andersoni|Dendriopoterium menendezii|Dendroctonus ponderosae|Dichotomophthora lutea|Dicranopteris pedata|Dictyopteris australis|Didymium bahiense|Dimocarpus longan|Diospyros kaki|Diphasia angolensis|Dipteryx odorata|Discaria serratifolia|Disynaphia halimifolia|Dodonaea viscosa|Dolichothele uberiformis|Doodia picta|Dorycnium hirsutum|Drosera adelae|Dryopteris sacrosancta|Dysidea tupha|Dysoxylum cumingianum|Echinacea pallida|Echinosophora koreensis|Echium sericeum|Ectyoplasia ferox|Ekebergia senegalensis|Elegia deusta|Eleusine indica|Elsholtzia cristata|Elymus repens|Embelia schimperi|Enceliopsis argophylla|Entomophthora virulenta|Ephedra equisetina|Ephydatia syriaca|Epichloe festucae var. lolii|Epimedium davidii|Eragrostis viscosa|Eria mollis|Eria pubescens|Erica arborea|Erica glauca|Erigeron annuus|Eriobotrya japonica|Eriocheir sinensis|Eriostemon tomentellus|Erodium stephanianum|Erysimum canescens|Erysimum odoratum|Erythroxylum passerinum|Escherichia coli|Eucalyptus dalrympleana|Eucalyptus globulous maidenii|Eucalyptus globulus|Eucalyptus maideni|Eucalyptus ovata|Eucalyptus populnea|Eucalyptus sideroxylon|Eucommia ulmoides|Eunicella cavolinii|Euphorbia helioscopia|Euphorbia hirta|Euphorbia lunulata|Euphorbia pannonica|Euphorbia species|Euphoria longan|Eupolyphaga sinensis|Eutypella scoparia|Evernia vulpina|Excoecaria agallocha|Fagopyrum cymosum|Fallopia multiflora|Flacourtia jangomas|Flemingia stricta|Flindersia pimenteliana|Forsteronia refracta|Forsythia europaea|Fragaria x ananassa|Fridericia chica|Frullania tamarisci|Fusarium roseum|Gadus morhua callarias|Galenia africana|Galium dasypodum|Garcinia intermedia|Gardenia turgida|Geranium carolinianum|Geranium thunbergii|Geranium wilfordii|Ginkgo biloba|Glehnia littoralis|Globba malaccensis|Globularia davisiana|Glochidion sphaerogynum|Gnaphalium affine|Gnidia lamprantha|Goniothalamus amuyon|Grewia mollis|Gymnocarpium robertianum|Habropetalum dawei|Haliclona nigra|Haloxylon recurvum|Harrisonia abyssinica|Hedeoma multiflora|Heimia salicifolia|Helenium arizonicum|Helianthemum sessiliflorum|Helianthus maximiliani|Helichrysum lepidissimum|Heliotropium amplexicaule|Heliotropium floridum|Heliotropium ternatum|Helleborus multifidus|Hemerocallis fulva|Herba ecliptae prostratae|Heterotheca grandiflora|Heterotheca inuloides|Hibiscus Rosa|Hibiscus sabdariffa|Hintonia latiflora|Hippocratea excelsa|Hippospongia communis|Holboellia fargesi|Holomelina lamae|Honorius nutans|Hopea utilis|Houttuynia cordata|Hovenia acerba|Hymenoxys insignis|Hypericum ascyron|Hypericum japonicum|Hypericum mysorense|Hypericum perforatum|Hypericum revolutum|Hypericum sampsonii|Hypericum scabrum|Hypericum sikokumontanum|Hypsizygus ulmarius|Iberis amara|Ideopsis similis|Ilex amara|Ilex lepta|Ilex purpurea|Indigofera spicata|Inella verrucosa|Inocybe geophylla|Inula salicifolia|Ircinia ramosa|Iris florentina|Iryanthera coriacea|Isaria fumosorosea|Isodon japonicus|Isodon lihsienensis|Ixeris chinensis|Jacobaea vulgaris|Juglans nigra|Juglans regia|Justicia hayatai|Justicia secunda|Kaempferia marginata|Kaunia saltensis|Kielmeyera coriacea|Knautia montana|Knightia excelsa|Koenigia polystachya|Lactobacillus delbrueckii subsp. bulgaricus|Lactuca sativa|Larix decidua|Laurencia distichophylla|Laurus nobilis|Lavandula vera|Leishmania major|Lemna trisulca|Leontopodium nanum|Leonurus glaucescens|Lepidium draba|Lespedeza bicolor|Lespedeza virgata|Leucas neufliseana|Leuzea centauroides|Ligustrum lucidum|Limonium sinense|Lithospermum officinale|Litsea glutinosa|Litsea salicifolia|Litsea triflora|Lonicera japonica|Loranthus parasiticus|Lycopersicon esculentum|Maba buxifolia|Macrothele gigas|Malpighia emarginata|Malus domestica|Malus pumila|Mangifera indica|Manilkara zapota|Marine actinobacterium|Matricaria suffruticosa|Melanelixia fuliginosa subsp. glabratula|Melastoma candidum|Melia indica|Melochia tomentosa|Mesembryanthemum expansum|Metapenaeus bennettae|Micarea austroternaria|Microlepia speluncae|Micromeria pineolens|Miliusa velutina|Mimusops caffra|Mitragyna speciosa|Monascus pilosus|Monodora brevipes|Morella rubra|Morinda citrifolia|Morinda morindoides|Morus alba|Morus australis|Murraya exotica|Murraya paniculata|Mycobacterium avium subsp. paratuberculosis|Myrica rubra|Myrocarpus frondosus|Myrsine africana|Narcissus asturiensis|Narcissus concolor|Nauclea officinalis|Navanax inermis|Nelumbo nucifera|Nemalion vermiculare|Neobalanocarpus heimii|Neoscopelus microchir|Nerine bowdenii|Nidula candida|Nymphaea caerulea|Nymphaea odorata|Ocotea minarum|Olea europaea|Oncoba echinata|Onobrychis arenaria|Oophaga pumilio|Ophiocoma scolopendrina|Ophioglossum petiolatum|Ophiolepis superba|Osmorhiza aristata|Ostryopsis davidiana|Osyris abyssinica|Paeonia suffruticosa|Panorpa japonica|Papilio phorcas|Parabenzoin trilobum|Paralemnalia clavata|Pedilanthus tithymaloides|Penicillium citreonigrum|Penicillium herquei|Penstemon gentianoides|Perezia carpholepis|Periploca calophylla|Peripterygia marginata|Persicaria hydropiper|Persicaria orientalis|Persicaria thunbergii|Pestalotiopsis guepinii|Peucedanum praeruptorum|Phaseolus vulgaris|Phellodendron amurense|Phoebe clemensii|Phycopsis terpnis|Phyllanthus emblica|Physalis alkekengi|Picris conyzoides|Pinguicula vulgaris|Pinus brutia var. pityusa|Piptocarpha oblonga|Pittosporum phillyraeoides|Pityrodia jamesii|Placida dendritica|Plantago bellardi|Platonia insignis|Platycladus orientalis|Plumbago zeylanica|Polycephalomyces nipponicus|Polygonum aviculare|Polygonum cuspidatum|Polygonum hydropiper|Polygonum polystachyum|Polygonum thunbergii|Polymnia uvedalia|Pongamiopsis pervilleana|Populus ussuriensis|Potentilla discolor|Prumnopitys ferruginoides|Prunus tomentosa|Pseudaegle trifoliata|Pseudodistoma arborescens|Psoroma pallidum|Psychotria serpens|Psychotria stachyoides|Pteris dactylina|Pterogyne nitens|Pterospermum lanceaefolium|Pterospermum lanceifolium|Pycnandra acuminata|Pyrola japonica|Pyrostegia venusta|Pyrrosia lingua|Quercus robur|Quercus sessiliflora|Ramulus euonymi|Rana amurensis|Ranunculus fluitans|Rattus rattus|Reaumuria hirtella|Reseda luteola|Rhizoma fagopyri cymosi|Rhododendron dauricum|Rhododendron ellipticum|Rhododendron farrerae|Rhododendron yedoense var. poukhanense|Rhytidoponera metallica|Rivularia firma|Rodgersia podophylla|Rosa chinensis|Rosa rugosa|Rubia oncotricha|Rubrivivax gelatinosus|Rubus idaeus|Rubus koehneanus|Ruditapes philippinarum|Ruta pinnata|Saccharopolyspora spinosa|Salacia madagascariensis|Salvia breviflora|Salvia dorrii|Salvia munzii|Salvia tonalensis|Sarcococca vagans|Sargassum muticum|Sargassum thunbergii|Saururus chinensis|Saussurea carthamoides|Saxifraga stolonifera|Scabiosa succisa|Sclerotinia fructicola|Scurrura atropurpurea|Scutellaria barbata|Scutellaria orientalis|Sedum sarmentosum|Senecio carthamoides|Senecio densiflorus|Senecio dolichodoryius|Senecio nemorensis|Senecio scandens|Senecio subdentatus|Serratula wolffii|Sesbania bispinosa|Sida veronicaefolia|Sidastrum paniculatum|Sideritis javalambrensis|Sindora siamensis|Sinularia maxima|Siphula decumbens|Smilax china|Smilax glabra|Solanum acaule|Solanum transcaucasicum|Solidago decurrens|Solidago serotina|Solidago virgaurea var. leiocarpa|Sophora angustifolia|Sophora japonica|Sophora tometosa|Sorbaria sorbifolia|Sphaerella laricina|Spinulum annotinum|Spodoptera eridania|Spongia bilamellata|Stachys tomentosa|Stemphylium radicinum|Stereospermum cylindricum|Stevia polycephala|Stipa vaseyi|Streptomyces aurantiogriseus|Streptomyces griseovariabilis|Streptomyces hachijoensis|Streptomyces parvisporogenes|Streptomyces setonensis|Streptomyces sparsogenes|Streptomyces thermoviolaceus|Strophanthus kombe|Strophanthus preussii|Suillus tridentinus|Swertia delavayi|Symphoricarpos rivularis|Syzygium samarangense|Tachigalia paniculata|Tamarix chinensis|Tarenaya spinosa|Tecoma pentaphylla|Teucrium depressum|Teucrium yemense|Thespesia populnea|Thevetia peruviana|Thorecta marginalis|Thuja orientalis|Thymus piperella|Toxicodendron succedaneum|Trachelospermum lucidum|Trichilia rubescens|Trichosanthes rosthornii|Trididemnum cyclops|Tripteris vaillantii|Triticum aestivum|Typha angustata|Typha angustifolia|Udotea petiolata|Ulmus americana|Ulva conglobata|Uncaria elliptica|Ungnadia speciosa|Uvaria griffithii|Vaccinium macrocarpon|Vaccinium vitis-idaea|Vallota purpurea|Vateria indica|Vauquelinia corymbosa|Vernonia anisochaetoides|Veronica arvensis|Viscaria viscosa|Vismia jefensis|Wedelia prostrata|Widely distributed in plant|Wikstroemia chamaedaphne|Wilcoxia viperina|Xanthoceras sorbifolia Bunge|Xanthoria aureola|Xylaria cubensis|Zanthoxylum bungeanum|Zanthoxylum fagara|Zanthoxylum piperitum|Zephyranthes sulphurea|hydrangeae dulcis folium|microtea debilis

>  <collections>  (97) 
ANPDB|AnalytiCon Discovery NPs|Australian natural products|BIOFACQUIM|CMAUP (cCollective molecular activities of useful plants)|ChEBI NPs|ChemSpider NPs|FooDB|GNPS (Global Natural Products Social Molecular Networking)|HIT (Herbal Ingredients Targets)|InflamNat|Latin America dataset|NANPDB (Natural Products from Northern African Sources)|NPASS|NuBBEDB|Phyto4Health|Super Natural II|TCMDB-Taiwan (Traditional Chinese Medicine database)|VietHerb

>  <dois>  (97) 
10.1002/(sici)1099-1565(199707)8:4<186::aid-pca355>3.0.co;2-7|10.1002/1099-1573(200011)14:7<510::AID-PTR646>3.0.CO;2-B|10.1002/rcm.574|10.1007/BF02977686|10.1016/0305-1978(90)90119-Z|10.1016/j.arabjc.2013.12.011|10.1016/j.bmc.2007.10.072|10.1016/j.bmcl.2007.09.003|10.1016/j.bmcl.2010.11.126|10.1016/j.bmcl.2015.04.003|10.1016/j.bmcl.2015.05.089|10.1016/j.bmcl.2016.08.094|10.1016/j.foodcont.2014.02.001|10.1016/j.jep.2011.12.005|10.1016/j.lwt.2014.11.023|10.1016/j.phytochem.2007.03.010|10.1016/j.phytochem.2015.08.017|10.1016/s0031-9422(00)86214-7|10.1016/s0031-9422(99)00049-7|10.1016/s0367-326x(00)00298-7|10.1016/s0960-894x(01)00467-x|10.1021/acs.jnatprod.7b00564|10.1021/acs.jnatprod.7b00587|10.1021/jf010622j|10.1021/jf9810261|10.1021/np0200764|10.1021/np020442j|10.1021/np040024+|10.1021/np070327e|10.1021/np070431w|10.1021/np070489a|10.1021/np400717m|10.1021/np400772h|10.1021/np50034a026|10.1021/np50117a005|10.1021/np900290s|10.1021/np970025k|10.1021/np970171q|10.1055/s-2007-987114|10.1071/ch9680425|10.1080/10408398.2015.1078276|10.1080/10575639508043206|10.1080/14786410802214009|10.1155/2007/45673|10.1271/bbb.68.1984|10.1271/bbb.69.280|10.3390/molecules200815330|10.5897/AJB08.883|10.5897/AJB2010.000-3252|10.5897/JMPR.9000078

>  <synonyms>  (97) 
522-12-3|Quercetin 3-rhamnoside|Quercitroside|Quercetrin|Quercimelin|Thujin|Quercitronic acid|Quercetin 3-O-alpha-L-rhamnoside|Usaf cf-2|Quercetrin-3-O-rham|Rhamnosyl-3-quercitin|Quercetin 3-O-rhamnopyranoside|Rhamnoside| quercetin-3|CHEBI:17558|C.I. 75720|UNII-2Y8906LC5P|3|3'|4'|5|7-Pentahydroxyflavone-3-L-rhamnoside|HSDB 4339|2Y8906LC5P|NCI-C60102|QUERCETIN 3-RHAMNOPYRANOSIDE|EINECS 208-322-5|2-(3|4-dihydroxyphenyl)-5|7-dihydroxy-3-(((2S|3R|4R|5R|6S)-3|4|5-trihydroxy-6-methyltetrahydro-2H-pyran-2-yl)oxy)-4H-chromen-4-one|Quercetin| 3-(6-deoxy-alpha-L-mannopyranoside)|Mannopyranoside| quercetin-3 6-deoxy-| alpha-L-|BRN 0068135|luteolin 6-deoxy-alpha-L-mannopyranoside|CI 75720|3-O-RHAMNOSYLQUERCETIN|AI3-36095|DTXSID50200230|NSC9221|5-18-05-00514 (Beilstein Handbook Reference)|Flavone| 3|3'|4'|5|7-pentahydroxy-| 3-rhamnoside|MFCD00016932|2-(3|4-dihydroxyphenyl)-5|7-dihydroxy-4-oxo-4H-chromen-3-yl 6-deoxy-alpha-L-mannopyranoside|WA 17779|Flavone| 3|3'|4'|5|7-pentahydroxy-| 3-(6-deoxy-alpha-L-mannopyranoside)|2-(3|4-dihydroxyphenyl)-5|7-dihydroxy-3-(2S|3R|4R|5R|6S)-3|4|5-trihydroxy-6-methyloxan-2-yloxychromen-4-one|3-((6-Deoxy-alpha-L-mannopyranosyl)-oxy)-2-(3|4-dihydr oxyphenyl)-5|7-dihydroxy-4H-1-benzopyran-4-one|4H-1-Benzopyran-4-one| 3-((6-deoxy-alpha-L-mannopyranosyl)oxy)-2-(3|4-dihydroxyphenyl)-5|7-dihydroxy-|5|7|3'|4'-TETRAHYDROXYFLAVONOL 3-O-RHAMNOSIDE|3|3'|4'|5|7-PENTAHYDROXYFLAVONE 3-L-RHAMNOSIDE|CHEMBL82242|4gue|Quercitroside|(S)|QCT|5|7-dihydroxy-3-|QUERCITRIN MI|QUERCITRIN HSDB|BIDD:PXR0076|2-(3|4-dihydroxyphenyl)-|MLS002472998|SCHEMBL147092|MEGxp0_000185|ACon1_000189|BDBM84978|cid_5280459|5-trihydroxy-6-methyltetrahydro-|DTXCID50122721|OXGUCUVFOIWWQJ-HQBVPOQASA-N|HMS2219D24|QUERCETIN 3-A-L-RHAMNOSIDE|HY-N0418|BDBM50056315|s3824|AKOS000278033|CCG-269215|CS-5408|SMP1_000253|1ST40260|AC-20295|AC-34266|BS-16996|QUERCETIN-3-O-.ALPHA.-RHAMNOSIDE|SMR001397103|3-O-alpha-L-RHAMNOPYRANOSYLQUERCETIN|NS00006156|3-O-.ALPHA.-L-RHAMNOPYRANOSYLQUERCETIN|C01750|QUERCETIN 3-O-.ALPHA.-RHAMNOPYRANOSIDE|((2S|3R|4R|5R|6S)-3|4||Q-100588|Q-100945|Q1649777|Quercitrin| primary pharmaceutical reference standard|BRD-K98601533-001-01-7|3-O-a-L-Rhamnopyranosyloxy-3'|4'|5|7-tetrahydroxyflavone|QUERCITRIN (QUERCETIN-3-O-RHAMNOSIDE) (CONSTITUENT OF GINKGO)|3-((6-DEOXY-.ALPHA.-L-MANNOPYRANOSYL)OXY)-2-(3|4-DIHYDROXYPHENYL)-5|7-DIHYDROXY-4H-1-BENZOPYRAN-4-ONE|Widely distributed in plant|quercetin-3-O-rhamnoside|quercetin 3-alpha-L-rhamnopyranoside|Quercitrin 3-O-\u221a\u00e9\u00ac\u00b1-rhamnosylquercetin|quercitrin

>  <cas>  (97) 
522-12-3

$$$$

     RDKit          2D

 33 36  0  0  0  0  0  0  0  0999 V2000
    1.9234   -1.1111    0.0000 O   0  0  0  0  0  0  0  0  0  0  0  0
    0.4347   -1.2949    0.0000 C   0  0  0  0  0  0  0  0  0  0  0  0
   -0.4689   -0.0976    0.0000 C   0  0  0  0  0  0  0  0  0  0  0  0
    0.1163    1.2836    0.0000 O   0  0  0  0  0  0  0  0  0  0  0  0
    1.6050    1.4674    0.0000 C   0  0  0  0  0  0  0  0  0  0  0  0
    2.5085    0.2701    0.0000 O   0  0  0  0  0  0  0  0  0  0  0  0
    3.9972    0.4539    0.0000 C   0  0  0  0  0  0  0  0  0  0  0  0
    4.9008   -0.7434    0.0000 C   0  0  0  0  0  0  0  0  0  0  0  0
    6.3895   -0.5596    0.0000 O   0  0  0  0  0  0  0  0  0  0  0  0
    4.5824    1.8351    0.0000 C   0  0  0  0  0  0  0  0  0  0  0  0
    6.0711    2.0189    0.0000 O   0  0  0  0  0  0  0  0  0  0  0  0
    3.6788    3.0324    0.0000 C   0  0  0  0  0  0  0  0  0  0  0  0
    4.2640    4.4136    0.0000 O   0  0  0  0  0  0  0  0  0  0  0  0
    2.1901    2.8486    0.0000 C   0  0  0  0  0  0  0  0  0  0  0  0
    1.2866    4.0459    0.0000 O   0  0  0  0  0  0  0  0  0  0  0  0
   -1.9575   -0.2814    0.0000 C   0  0  0  0  0  0  0  0  0  0  0  0
   -2.8611    0.9159    0.0000 C   0  0  0  0  0  0  0  0  0  0  0  0
   -2.2759    2.2971    0.0000 C   0  0  0  0  0  0  0  0  0  0  0  0
   -3.1795    3.4944    0.0000 C   0  0  0  0  0  0  0  0  0  0  0  0
   -4.6682    3.3106    0.0000 C   0  0  0  0  0  0  0  0  0  0  0  0
   -5.5717    4.5079    0.0000 O   0  0  0  0  0  0  0  0  0  0  0  0
   -5.2533    1.9294    0.0000 C   0  0  0  0  0  0  0  0  0  0  0  0
   -6.7420    1.7456    0.0000 O   0  0  0  0  0  0  0  0  0  0  0  0
   -4.3498    0.7321    0.0000 C   0  0  0  0  0  0  0  0  0  0  0  0
   -2.5427   -1.6626    0.0000 O   0  0  0  0  0  0  0  0  0  0  0  0
   -1.6391   -2.8599    0.0000 C   0  0  0  0  0  0  0  0  0  0  0  0
   -2.2243   -4.2410    0.0000 C   0  0  0  0  0  0  0  0  0  0  0  0
   -1.3207   -5.4384    0.0000 C   0  0  0  0  0  0  0  0  0  0  0  0
   -1.9059   -6.8195    0.0000 O   0  0  0  0  0  0  0  0  0  0  0  0
    0.1680   -5.2545    0.0000 C   0  0  0  0  0  0  0  0  0  0  0  0
    0.7531   -3.8734    0.0000 C   0  0  0  0  0  0  0  0  0  0  0  0
    2.2418   -3.6895    0.0000 O   0  0  0  0  0  0  0  0  0  0  0  0
   -0.1504   -2.6761    0.0000 C   0  0  0  0  0  0  0  0  0  0  0  0
  1  2  2  0
  2  3  1  0
  3  4  1  0
  5  4  1  1
  5  6  1  0
  6  7  1  0
  7  8  1  1
  8  9  1  0
  7 10  1  0
 10 11  1  6
 10 12  1  0
 12 13  1  1
 12 14  1  0
 14 15  1  6
  3 16  2  0
 16 17  1  0
 17 18  2  0
 18 19  1  0
 19 20  2  0
 20 21  1  0
 20 22  1  0
 22 23  1  0
 22 24  2  0
 16 25  1  0
 25 26  1  0
 26 27  2  0
 27 28  1  0
 28 29  1  0
 28 30  2  0
 30 31  1  0
 31 32  1  0
 31 33  2  0
 33  2  1  0
 14  5  1  0
 24 17  1  0
 33 26  1  0
M  END
>  <identifier>  (98) 
CNP0180599.2

>  <canonical_smiles>  (98) 
O=C1C(O[C@@H]2O[C@H](CO)[C@@H](O)[C@H](O)[C@H]2O)=C(C2=CC=C(O)C(O)=C2)OC2=CC(O)=CC(O)=C12

>  <standard_inchi>  (98) 
InChI=1S/C21H20O12/c22-6-13-15(27)17(29)18(30)21(32-13)33-20-16(28)14-11(26)4-8(23)5-12(14)31-19(20)7-1-2-9(24)10(25)3-7/h1-5,13,15,17-18,21-27,29-30H,6H2/t13-,15-,17+,18-,21+/m1/s1

>  <standard_inchi_key>  (98) 
OVSQVDMCBVZWGM-QSOFNFLRSA-N

>  <name>  (98) 
Isoquercetin

>  <iupac_name>  (98) 
2-(3,4-dihydroxyphenyl)-5,7-dihydroxy-3-[(2~{S},3~{R},4~{S},5~{S},6~{R})-3,4,5-trihydroxy-6-(hydroxymethyl)tetrahydropyran-2-yl]oxy-chromen-4-one

>  <annotation_level>  (98) 
5

>  <total_atom_count>  (98) 
53

>  <heavy_atom_count>  (98) 
33

>  <molecular_weight>  (98) 
464.38

>  <exact_molecular_weight>  (98) 
464.09548

>  <molecular_formula>  (98) 
C21H20O12

>  <alogp>  (98) 
-0.54

>  <topological_polar_surface_area>  (98) 
210.51

>  <rotatable_bond_count>  (98) 
4

>  <hydrogen_bond_acceptors>  (98) 
12

>  <hydrogen_bond_donors>  (98) 
8

>  <hydrogen_bond_acceptors_lipinski>  (98) 
12

>  <hydrogen_bond_donors_lipinski>  (98) 
8

>  <lipinski_rule_of_five_violations>  (98) 
2

>  <aromatic_rings_count>  (98) 
3

>  <qed_drug_likeliness>  (98) 
0.23

>  <formal_charge>  (98) 
0

>  <fractioncsp3>  (98) 
0.29

>  <number_of_minimal_rings>  (98) 
4

>  <van_der_walls_volume>  (98) 
372.27

>  <contains_sugar>  (98) 
True

>  <contains_ring_sugars>  (98) 
True

>  <contains_linear_sugars>  (98) 
False

>  <murcko_framework>  (98) 
O1c2ccccc2CC(OC3OCCCC3)=C1c4ccccc4

>  <np_likeness>  (98) 
2.16

>  <chemical_class>  (98) 
Flavonoids

>  <chemical_sub_class>  (98) 
Flavonoid glycosides

>  <chemical_super_class>  (98) 
Phenylpropanoids and polyketides

>  <direct_parent_classification>  (98) 
Flavonoid-3-O-glycosides

>  <np_classifier_pathway>  (98) 
Shikimates and Phenylpropanoids

>  <np_classifier_superclass>  (98) 
Flavonoids

>  <np_classifier_class>  (98) 
Flavonols

>  <np_classifier_is_glycoside>  (98) 
True

>  <organisms>  (98) 
Abacopteris penangiana|Abelmoschus manihot|Acacia adunca|Acacia armata|Acacia aulacocarpa|Acacia kempeana|Acanthias vulgaris|Acanthopanax gracilistylus|Acanthopanax sessiliflorum|Acanthospermum glabratum|Acanthus ilicifolius|Achillea clypeolata|Achillea pseudopectinata|Acnistus breviflorus|Aconitum kamtschaticum|Aconitum seravschanicum|Aconitum tasiromontanum|Aconitum vilmorinianum|Aconitum violaceum|Acrostichum aureum|Actinidia deliciosa|Actinidia kolomikta|Adansonia grandidieri|Adenocarpus foliolosus|Adenocaulon himalaicum|Adiantum lunulatum|Adonis sutchuenensis|Aesculus chinensis|Aframomum sulcatum|Agaricus hortensis|Agelas linnaei|Ageratina saltillensis|Aglaia australiensis|Aglaia tsangii|Agrimonia pilosa|Albizia inundata|Alhagi persarum|Alkanna cappadocica|Alkanna orientalis|Allagopappus viscosissimus|Allium cepa|Allium neapolitanum|Allium rosenorum|Allium victorialis|Alstonia spathulata|Alternaria japonica|Amaranthus hypochondriacus|Amathia pinnata|Ambrosia tenuifolia|Amomum longiligulare|Amomum villosum|Amomum xanthioides|Amphilophis odorata|Amsinckia tessellata|Amyris marshii|Anacystis montana|Anaxagorea dolichocarpa|Ancistrocladus abbreviatus|Andrographis paniculata|Anemone flaccida|Angelica gmelinii|Angelica pubescens|Anigozanthos pulcherrimus|Anigozanthos rufus|Annona cornifolia|Anolis lineatopus|Anthelia juratzkana|Anthemis altissima|Anthemis cairica|Anthocleista procera|Anthopleura xanthogrammica|Anthoxanthum nitens|Anthyllis onobrychoides|Antillogorgia elisabethae|Aphyllocladus denticulatus|Apocynum venetum|Arca noae|Ardisia colorata|Ardisia neriifolia|Aronia melanocarpa|Artemisia annua|Artemisia annua L.|Artemisia apiacea|Artemisia argyi|Artemisia assoana|Artemisia capillaris|Artemisia dentata|Artemisia iwayomogi|Artemisia lactiflora|Artemisia lerchiana|Artemisia montana|Artemisia princeps|Arthrobacter glacialis|Arum alpinum|Aruncus dioicus|Asarum heterotropoides|Ascidia ahodori|Aspalathus linearis|Asparagus officinalis|Aspergillus falconensis|Aspergillus mutabilis|Aspergillus wentii|Aspidosperma subincanum|Aster koraiensis|Aster oharai|Aster sedifolius|Asterias glacialis|Asterospicularia laurae|Astilbe myriantha|Astragalus cicer|Astragalus complanatus|Astragalus dissectus|Astragalus ernestii|Astragalus goktschaicus|Astragalus interpositus|Astragalus membranaceus|Astragalus mongholicus|Astragalus pycnanthus|Astragalus sempervirens|Astragalus spinosus|Atalantia racemosa|Athanasia crithmifolia|Atractylodes macrocephala|Atta cephalotes|Attalea excelsa|Atuna racemosa|Aucuba chinensis|Aurelia aurita|Baccharis rosmarinifolia|Baccharis sagittalis|Baccharis thesioides|Badilloa salicina|Baillonella toxisperma|Barleria buxifolia|Bassia muricata|Bauhinia glauca|Benzoin praecox|Berberis floribunda|Berberis julianae|Berberis repens|Berlinia tomentosa|Berneuxia thibetica|Betula exilis|Bishovia boliviensis|Bistorta vivipara|Blastochloris viridis|Bleekeria vitiensis|Bonamia spectabilis|Bongardia chrysogonum|Bonnetia dinizii|Borago officinalis|Boronella koniambiensis|Botryosphaeria berengeriana|Botryotrichum piluliferum|Brachyspira hyodysenteriae|Brassica oleracea var. sabauda|Breea segeta|Brevibacillus laterosporus|Briareum asbestinum|Brickellia cylindracea|Brickellia vernicosa|Bridelia ferruginea|Buddleja cordata|Bunodosoma caissarum|Buphane fischeri|Buphthalmum salicifolium|Bupleurum chinense|Burkholderia pyrrocinia|Byrsonima coccolobifolia|Byssothecium obiones|Bystropogon origanifolius|Caenorhabditis elegans|Caesalpinia pulcherrima|Calendula officinalis|Callitris drummondii|Calocephalus citreus|Calostephane divaricata|Camellia sinensis|Canarium strictum|Capnoides sempervirens|Capparis spinosa|Capuronianthus mahafalensis|Caragana aurantiaca|Cardamine pinnata|Cardiospermum hirsutum|Carica dodecaphylla|Carthamus tinctorius|Castanopsis cuspidata|Casuarina equisetifolia|Catalpa ovata|Catunaregam spinosa|Caulerpa serrulata|Caulocystis cephalornithos|Cedrela fissilis|Cedronella canariensis|Centaurea aspera|Centaurea cana|Centaurea horrida|Centaurea huber-morathii|Centaurea jacea|Centaurea sinaica|Centella asiatica|Ceramium rubrum|Ceratosoma brevicaudatum|Cerbera dilatata|Cereus dumortieri|Cereus polyrhizus|Ceroplastes albolineatus|Chaenomeles sinensis|Chaetomium cochliodes|Cheiropteris palmatopedata|Chelidonium majus|Chisocheton ceramicus|Chromodoris inornata|Chromolaena arnottiana|Chrysanthemum indicum|Chrysanthemum x morifolium|Cirsium setosum|Citrus hassaku|Citrus rugulosa|Citrus tangerina|Cladogynos orientalis|Cladophora laetevirens|Cleome pungens|Clerodendron cyrtophyllum|Clethra macrophylla|Clitoria ternatea|Clusia ellipticifolia|Cneorum pulverulentum|Codonocarpus australis|Codonopsis pilosula|Coelogorgia palmosa|Commelina communis|Commiphora abyssinica|Conus marmoreus|Conus parius|Conus tribblei|Conyza dioscoridis|Conyza filaginoides|Cordyline neocaledonica|Coreopsis grandiflora|Cornus officinalis|Corticium simplex|Corydalis ochotensis|Cotoneaster orbicularis|Cotyledon secunda|Coutarea latifolia|Crambe tatarica|Crataegus pinnatifida|Crateva nurvala|Crepidiastrum sonchifolium|Crocus minimus|Crocus sativus|Crotalaria lachnophora|Crotalaria medicaginea|Crotalaria novae-hollandiae|Croton laccifer|Cryptocarya aschersoniana|Cryptocarya lividula|Cryptomonas ovata|Cucumis sativus|Cucurbita maxima|Cucurbita moschata|Cunonia macrophylla|Curculigo pilosa|Cuscuta chinensis|Cyberlindnera jadinii|Cycas armstrongii|Cycas revoluta|Cymodocea nodosa|Cynometra lujae|Cystoseira crinita|Cystoseira fimbriata|Cytisus scoparius|Cytophaga hutchinsoni|Daemonorops draco|Dalbergia sissoo|Daphniphyllum angustifolium|Dasystenella acanthina|Decaisnea fargesii|Delphinium shawurense|Dendrilla cavernosa|Dendriopoterium menendezii|Dendroaspis angusticeps|Dendrobates azureus|Dendrobium crepidatum|Dendrobium thyrsiflorum|Dendroctonus ponderosae|Dendrodoris krebsii|Descurainia sophia|Desmodium styracifolium|Diaphus suborbitalis|Dicranopteris linearis|Dictamnus dasycarpus|Dictyopteris australis|Dictyota bartayresiana|Didemnum chartaceum|Dimerostemma brasilianum|Dinophysis fortii|Diospyros buxifolia|Diospyros eriantha|Diospyros kaki|Diospyros verrucosa|Diphasiastrum thyoides|Diplacus longiflorus|Dipsacus asper|Dipteronia dyeriana|Diptychocarpus strictus|Dodonaea polyandra|Dodonaea viscosa|Dolichothele uberiformis|Dorycnium suffruticosum|Drechslera avenae|Dryopteris sacrosancta|Duguetia calycina|Dumoria heckeli|Dumortiera hirsuta|Dunalia solanacea|Dysidea amblia|Dysoxylum cumingianum|Echium pininana|Ectropis bicolor|Elaeodendron paniculatum|Eleusine indica|Elizabethkingia meningoseptica|Elsholtzia Rugulosa|Elsholtzia cristata|Enceliopsis argophylla|Entada rheedei|Ephedra aphylla|Ephydatia syriaca|Epichloe festucae var. lolii|Epimedium brevicornu|Epimedium brevicornum|Epimedium grandiflorum|Epimedium koreanum|Epimedium pubescens|Epimedium sagittatum|Epimedium sempervirens|Epimedium wushanense|Epirrhoe sperryi|Equisetum arvense|Eragrostis curvula|Eria alba|Eria floribunda|Eria mollis|Erinaceus europaeus|Eriobotrya japonica|Eriocheir sinensis|Eriostemon spicatus|Eriostemon tomentellus|Erodium chium|Erodium moschatum|Erodium stephanianum|Erylus trisphaerus|Erythrospermum zeylanicum|Erythroxylum passerinum|Esenbeckia hartmanii|Esox saurus|Eucalyptus dalrympleana|Eucalyptus maideni|Eucalyptus melliodora|Eucalyptus rostrata|Eucalyptus sideroxylon|Eucalyptus staigeriana|Eucalyptus viminalis|Eucommia ulmoides|Euonymus nanoides|Eupatorium areolare|Eupatorium argentinum|Eupatorium petiolare|Euphorbia helioscopia|Euphorbia humifusa|Euphorbia myrsinites|Euphorbia pannonica|Euphorbia pekinensis|Euphoria longan|Euplotes raikovi|Eutreptia viridis|Excoecaria acerifolia|Excoecaria agallocha|Fagopyrum tataricum|Fagraea gracilipes|Fallopia multiflora|Felimida luteorosea|Ficus alba|Flacourtia jangomas|Foeniculum vulgare|Fomes robiniae|Forsythia suspensa|Forsythia viridissima|Fragaria x ananassa|Fraxinus ornus|Fritillaria meleagris|Fritillaria ningguoensis|Fritillaria stenanthera|Fructus mori|Fumaria micrantha|Fusarium avenaceum|Fusarium sacchari|Fusarium sambucinum|Gadus morhua callarias|Garcinia macrophylla|Garcinia pyrifera|Garcinia xipshuanbannaensis|Gardenia jasminoides|Gardenia turgida|Garrya elliptica|Garrya laurifolia|Genista pichisermolliana|Geranium carolinianum|Geranium thunbergii|Geranium wilfordii|Gerbera ambigua|Ginkgo biloba|Gleditsia caspica|Glehnia littoralis|Glinus lotoides|Gloiopeltis furcata|Glycosmis ovoidea|Glycyrrhiza glabra|Glycyrrhiza inflata|Glycyrrhiza uralensis|Gnaphalium oligandrum|Gnetum latifolium|Goniothalamus giganteus|Goniothalamus malayanus|Gossypium barbadense|Gouania microcarpa|Goupia glabra|Gracilaria textorii|Graphis cognata|Grataegus pinnatifida|Greenwayodendron oliveri|Grewia villosa|Guatteria boliviana|Gutierrezia lucida|Gymnanthemum amygdalinum|Gymnothorax javanicus|Habropetalum dawei|Haliclona nigra|Haloxylon persicum|Haplophyllum ramosissimum|Hedysarum connatum|Heimia salicifolia|Helichrysum graveolens|Helichrysum mixtum|Helicteres angustifolia|Heliotropium amplexicaule|Helipterum gnaphaloides|Helipterum roseum|Herba sedi sarmentosi|Hibiscus mutabilis|Hibiscus sabdariffa|Hippeastrum papilio|Hippophae rhamnoides|Hoffmannia strigillosa|Holboellia fargesi|Holomelina lamae|Houttuynia cordata|Humata pectinata|Humulus lupulus|Hydrangea serrata|Hygrophorus chrysodon|Hylocereus ocamponis|Hymenaea courbaril|Hymenothrix wislizenii|Hypericum ascyron|Hypericum japonicum|Hypericum laricifolium|Hypericum perforatum|Hypericum sampsonii|Hypericum sikokumontanum|Hypolepis punctata|Hypoxis multiceps|Hyptis brevipes|Iberis amara|Ichthyothere terminalis|Impatiens balsamina|Ipomoea digitata|Ipomoea reptans|Ipomopsis polycladon|Ips confusus|Ips paraconfusus|Ips pini|Ircinia dendroides|Ircinia ramosa|Iris florentina|Iryanthera paraensis|Isaria fumosorosea|Isatis tinctoria|Isophysis tasmanica|Ixeris chinensis|Ixeris denticulata|Ixeris tamagawaensis|Iyengaria stellata|Jaborosa kurtzii|Jacaranda chelonia|Jacobaea subalpina|Jamesoniella colorata|Juniperus brevifolia|Juniperus rigida var. conferta|Juniperus utahensis|Justicia secunda|Kali turgidum|Kandelia candel|Khaya senegalensis|Kitaibelia vitifolia|Klebsiella pneumoniae|Knautia montana|Koompassia malaccensis|Kopsia teoi|Krameria lappacea|Laburnum watereri|Laccaria vinaceoavellanea|Lactobacillus casei|Laetiporus versisporus|Laggera alata|Lathyrus nissolia|Laurencia spectabilis|Lavandula vera|Lawsonia inermis|Leathesia nana|Lemaireocereus griseus|Lemna trisulca|Lens culinaris|Lentinus tigrinus|Lenzites betulinus|Leonurus heterophyllus|Leonurus persicus|Lepidium apetalum|Lepidosperma ustulatum|Lepisorus contortus|Lepisorus thunbergianus|Lepisorus ussuriensis|Leucopaxillus giganteus|Licania pittieri|Licaria armeniaca|Limnocharis flava|Liparis loeselii|Lithothamnion corallioides|Litsea guatemalensis|Lonchocarpus laxiflorus|Lonicera confusa|Lonicera confuse|Lonicera dasystyla|Lonicera fulvotomentosa|Lonicera hypoglauca|Lonicera japonica|Lonicera macranthoides|Lunularia cruciata|Lycopodium flabelliforme|Lysiana subfalcata|Lysimachia christinae|Lysimachia mauritiana|Macadamia ternifolia|Macaranga peltata|Macrothele gigas|Magnolia pterocarpa|Magnolia sieboldii|Mahonia simonsii|Malus domestica|Malus sieversii|Mammillaria magnimamma|Mantella aurantiaca|Marcetella moquiniana|Marrubium anisodon|Matricaria matricarioides|Maytenus buxifolia|Maytenus loeseneri|Maytenus serrata|Medinilla magnifica|Meiogyne virgata|Melia azedarach|Melia azedarach var. toosendan|Melia indica|Melochia corchorifolia|Menegazzia asahinae|Mesua ferrea|Metanarthecium luteoviride|Metasequoia glyptostroboides|Metatrichia vesparium|Micarea austroternaria|Microbispora rosea subsp. aerata|Microciona eurypa|Microglossa pyrrhopappa|Microlepia speluncae|Miliusa sinensis|Miliusa velutina|Millettia erythrocalyx|Millettia ferruginea|Mitracarpus scaber|Mitragyna speciosa|Mitrephora diversifolia|Mollinedia costaricensis|Monanchora pulchra|Monnieria trifolia|Monodora brevipes|Monomorium floricola|Monopteryx uaucu|Montanoa guatemalensis|Moringa oleifera|Mortierella elongata|Morus alba|Morus bombycis|Mucor hiemalis|Munronia delavayi|Murraya kwangsiensis|Mycobacterium avium subsp. paratuberculosis|Mycobacterium leprae|Mycobacterium tuberculosis|Narcissus asturiensis|Nassauvia cumingii|Nasutitermes ephratae|Naucleopsis ternstroemiiflora|Navanax inermis|Negombata magnifica|Nelumbo nucifera|Neobalanocarpus heimii|Neolentinus lepideus|Neonectria candida|Nostoc spongiaeforme|Ocotea minarum|Odontites rubra|Ongokea klaineana|Onobrychis arenaria|Onobrychis bobrovii|Onobrychis cyri|Ononis pubescens|Ononis vaginalis|Onopordum alexandrinum|Oophaga histrionica|Ophioparma ventosa|Ophiorrhiza blumeana|Ophryosporus floribundus|Oreoherzogia fallax|Ormosia balansae|Orostachys fimbriata|Orostachys japonicus|Osteospermum muricatum|Ostryopsis davidiana|Osyris abyssinica|Oxalis purpurea|Panopsis rubescens|Panorpa japonica|Papaver persicum|Papaver tatricum|Parablechnum minus|Paradendryphiella salina|Paralemnalia clavata|Parmelia subrudecta|Pastinaca sativa|Payena lucida|Pedicularis longiflora|Pedicularis procera|Pedilanthus tithymaloides|Pelargonium graveolens|Peltogyne porphyrocardia|Peltogyne pubescens|Peltostigma guatemalense|Penstemon gentianoides|Peperomia proctorii|Peperomia vulcanica|Periploca calophylla|Peritassa compta|Perovskia abrotanoides|Persicaria tinctoria|Pestalotiopsis heterocornis|Petasites japonicus|Petteria ramentacea|Peucedanum palustre|Peyssonnelia caulifera|Phaeolus schweinitzii|Phalaenopsis aphrodite|Phalaenopsis schilleriana|Phalaris canariensis|Phellodendron amurense|Phellodendron amurense var. wilsonii|Phlomoides hamosa|Phoebe pittieri|Phyllanthus emblica|Physalis alkekengi|Physalis edulis|Physalis solanaceus|Picris conyzoides|Picrorhiza kurrooa|Pinus brutia var. eldarica|Pinus radiata|Piper taboganum|Piptocarpha oblonga|Planchonia careya|Plantago lundborgii|Platycarya strobilacea|Plectocephalus chilensis|Plectranthus mollis|Plenodomus tracheiphilus|Pleogyne cunninghami|Pleogyne cunninghamii|Pleurotus japonicus|Plexaurella nutans|Pluchea lanceolata|Plumbagella micrantha|Podocarpus salignus|Podolepis longipedata|Podospora curvicolla|Polyalthia barnesii|Polygala amara|Polygala reinii|Polygonatum stenophyllum|Polygonum aviculare|Polygonum cuspidatum|Polygonum persicaria|Polymnia uvedalia|Polyporus dryadeus|Polyporus pargamenus|Populus ussuriensis|Potamilla occelata|Potentilla discolor|Premna odorata|Premna tomentosa|Prorocentrum micans|Prosopis ruscifolia|Prumnopitys ferruginoides|Prunella vulgaris|Prunus armeniaca|Prunus domestica|Prunus dulcis|Prunus mume|Pseudaegle trifoliata|Pseudallescheria boydii|Pseudeurotium zonatum|Pseudoalteromonas luteoviolacea|Pseudoceratina arabica|Pseudocyphellaria faveolata|Psiadia dentata|Psoroma pallidum|Psychotria bahiensis|Psychotria st|Psychotria stachyoides|Ptarmica ptarmicifolia|Pteridium aquilinum|Pteris fauriei|Pteris pacifica|Pteris semipinnata|Pterodon emarginatus|Pulsatilla campanella|Pyrola decorata|Pyrola japonica|Pyrrosia lingua|Pyrus communis|Quercus serrata|Quercus suber|Ranunculus peltatus|Rapanea lancifolia|Ratibida mexicana|Rattus rattus|Raukaua simplex|Rauvolfia vomitoria|Retama duriaei|Rheedia acuminata|Rhinella arenarum|Rhododendron luteum|Rhodomicrobium vannielii|Ribes nigrum|Ribes rubrum|Rivina humilis|Rivularia firma|Roboastra tigris|Roccella fucoides|Rosa chinensis|Rosa rugosa|Rostellularia procumbens|Rosulabryum capillare|Rubia schumanniana|Rubus adenotrichos|Rubus glaucus|Rubus idaeus|Rubus koehneanus|Rubus lambertianus|Rubus loganobaccus|Rubus rosa|Rumex maritimus|Rusavskia elegans|Sabal causiarum|Sabina sargentii|Saccharopolyspora spinosa|Sagittaria sagittifolia|Salmonella enterica subsp. enterica serovar muenster|Salta triflora|Salvia hispanica|Salvia miltiorrhiza|Salvia polystachya|Salvia syriaca|Samadera indica|Sanguisorba officinalis|Sapium haematospermum|Sapium sebiferum|Sargassum hemiphyllum|Saururus chinensis|Saussurea amara|Saussurea involucrata|Saxifraga stolonifera|Schinus molle|Schisandra chinensis|Schistostephium rotundifolium|Schizonepeta multifida|Scilla dracomontana|Scorzonera pseudodivaricata|Scutellaria amoena|Scutellaria orientalis|Sedum litoreum|Sedum sarmentosum|Senecio ambraceus|Senecio cathcartensis|Senecio scandens|Senecio subdentatus|Senecio variabilis|Senecio viravira|Senecio viscosus|Septoria pistaciarum|Sequoia sempervirens|Serratula wolffii|Sia ferox|Sidastrum burrerense|Sideritis arborescens|Sideritis euboea|Sideritis hirsuta|Sideritis syriaca|Sindora wallichii|Sinopodophyllum hexandrum|Sinularia depressa|Siphocampylus verticillatus|Sisyrinchium californicum|Smilax glyciphylla|Solanum giganteum|Solanum laxum|Solanum olgae|Solanum pseudoquina|Solanum tuberosum|Sophora japonica|Sophora tometosa|Sorbus tianschanica|Sphaerella laricina|Stachys palustris|Stemphylium radicinum|Stephania elegans|Stephania sutchuenensis|Stereospermum cylindricum|Stevia paniculata|Stigma croci|Stigmatella erecta|Stilpnopappus pickelii|Streptomyces avermectinius|Streptomyces chryseus|Streptomyces ehimensis|Streptomyces fervens|Streptomyces fumanus|Streptomyces griseochromogenes|Streptomyces lavendofoliae|Streptomyces lavendulae|Streptomyces libani|Streptomyces odorifer|Streptomyces setonensis|Streptomyces yokosukanensis|Striga lutea|Strombus gigas|Strychnos guianensis|Suillus bovinus|Sutherlandia frutescens|Swertia decussata|Swertia franchetiana|Swertia japonica|Swertia swertopsis|Symphyocladia latiuscula|Syncarpia hillii|Syzygium nervosum|Tabebuia argentea|Tachigalia paniculata|Talaromyces coalescens|Tamarix aphylla|Tanacetum parthenifolium|Taraxacum borealisinense|Taraxacum coreanum|Taraxacum mongolicum|Taraxacum officinale|Taraxacum platycarpum|Taxus brevifolia|Tephrosia toxicaria|Tethya amamensis|Tetraena mongolica|Tetragonia tetragonioides|Tetraneuris acaulis|Teucrium asiaticum|Teucrium heterophyllum|Teucrium lanigerum|Teucrium yemense|Theobroma cacao|Thermopsis dolichocarpa|Thorecta marginalis|Thymus quinquecostatus|Thymus vulgaris|Tilia miqueliana|Tipuana tipu|Toddalia floribunda|Toricellia angulata|Trachelospermum asiaticum|Trachelospermum jasminoides|Trichilia hirta|Trichoderma koningi|Trifolium montanum|Trifolium strepens|Tripteris vaillantii|Trogoderma granarium|Tsuga chinensis|Turbo argyrostoma|Tussilago farfara|Typha domingensis|Ulva conglobata|Ulva lactuca|Uncaria sinensis|Unonopsis glaucopetala|Urena lobata|Usnea florida|Usnea undulata|Utricularia australis|Uvaria kirkii|Vaccinium corymbosum|Vaccinium oxycoccos|Vauquelinia corymbosa|Vepris pilosa|Veratrum stenophyllum|Vernonia arborea|Vernonia steetziana|Veronica chamaedrys|Vibrio fluvialis|Viburnum chingii|Viburnum tinus|Vicia amurensis|Vidalia volubilis|Viguiera incana|Viguiera procumbens|Virgilia divaricata|Vitex agnus-castus|Vitis rotundifolia|Vitis vinifera|Waldsteinia fragarioides|Walsura piscidia|Wikstroemia retusa|Woodfordia uniflora|Wulfenia orientalis|Wyethia mollis|Xanthoceras sorbifolia Bunge|Xanthosoma violaceum|Xenoacremonium recifei|Yucca recurvifolia|Zanthoxylum chiriquinum|Zanthoxylum fraxineum|Zanthoxylum tetraspermum|Zieria smithii|Zinnia elegans|Ziziphus jujuba|[enterobacter] aerogenes|dracocephalum ruyschiana

>  <collections>  (98) 
ANPDB|AfroCancer|AnalytiCon Discovery NPs|Australian natural products|BIOFACQUIM|CMAUP (cCollective molecular activities of useful plants)|ChEBI NPs|ChemSpider NPs|ConMedNP|DrugBankNP|ETM (Ethiopian Traditional Medicine) DB|FooDB|GNPS (Global Natural Products Social Molecular Networking)|Latin America dataset|Mitishamba database|NANPDB (Natural Products from Northern African Sources)|NPASS|NuBBEDB|Phenol-explorer|Phyto4Health|SANCDB|Super Natural II|TCMDB-Taiwan (Traditional Chinese Medicine database)|VietHerb

>  <dois>  (98) 
10.1002/ptr.1834/abstract|10.1007/BF02977770|10.1007/s11306-014-0638-x|10.1016/0031-9422(93)85448-z|10.1016/S0031-9422(96)00571-7|10.1016/S0031-9422(99)00598-1|10.1016/S0367-326X(99)00116-1|10.1016/j.arabjc.2014.11.059|10.1016/j.bmc.2007.10.072|10.1016/j.bmcl.2011.04.043|10.1016/j.bmcl.2011.11.109|10.1016/j.bmcl.2011.12.036|10.1016/j.bmcl.2012.10.043|10.1016/j.bmcl.2013.04.013|10.1016/j.bmcl.2014.01.028|10.1016/j.bmcl.2015.02.048|10.1016/j.bmcl.2015.04.045|10.1016/j.bmcl.2015.04.052|10.1016/j.bmcl.2015.05.089|10.1016/j.bmcl.2016.08.094|10.1016/j.jep.2018.11.034|10.1016/j.phymed.2011.12.001|10.1016/j.phytochem.2005.07.019|10.1016/j.phytochem.2007.03.010|10.1016/j.phytol.2008.04.003|10.1016/j.phytol.2013.10.006|10.1016/s0031-9422(00)86268-8|10.1016/s0367-326x(99)00116-1|10.1021/acs.jnatprod.0c00395|10.1021/acs.jnatprod.6b00981|10.1021/acs.jnatprod.7b00063|10.1021/acs.jnatprod.8b00948|10.1021/acs.jnatprod.9b00212|10.1021/jf9810261|10.1021/np000442o|10.1021/np0200764|10.1021/np020472m|10.1021/np030034v|10.1021/np0303411|10.1021/np030470h|10.1021/np050447r|10.1021/np068016b|10.1021/np0703850|10.1021/np100373f|10.1021/np200646e|10.1021/np300609u|10.1021/np4005163|10.1021/np400717m|10.1021/np50044a034|10.1021/np50050a047|10.1021/np50052a017|10.1021/np50088a022|10.1021/np900530n|10.1071/bi9691425|10.1080/14786410601035811|10.1111/1750-3841.14660|10.3390/molecules200815330|10.3390/molecules24162945|10.3390/molecules24183212|10.5897/AJB10.140|10.5897/JMPR.9000078

>  <synonyms>  (98) 
Isoquercitrin|482-35-9|Hirsutrin|Quercetin 3-glucoside|3-Glucosylquercetin|Quercetin 3-o-glucopyranoside|Quercetol 3-monoglucoside|CONTIGOSIDE B|Glucosyl 3-quercetin|Quercetin 3-beta-glucoside|quercetin-3-O-glucoside|Isotrifoliin|3-beta-D-Glucosylquercetin|Ronacare isoquercetin|Isoquercetin| (-)-|UNII-6HN2PC637T|NSC 115918|BRN 0100989|6HN2PC637T|CCRIS 9340|CHEBI:68352|quercetin 3-O-beta-D-glucopyranoside|CHEMBL250450|4-18-00-03493 (Beilstein Handbook Reference)|3|3'|4'|5|7-Pentahydroxyflavone 3-beta-glucoside|MFCD00017746|2-(3|4-dihydroxyphenyl)-5|7-dihydroxy-3-(((2S|3R|4S|5S|6R)-3|4|5-trihydroxy-6-(hydroxymethyl)tetrahydro-2H-pyran-2-yl)oxy)-4H-chromen-4-one|Q 5|2-(3|4-Dihydroxyphenyl)-5|7-dihydroxy-4-oxo-4H-chromen-3-yl beta-D-glucopyranoside|4H-1-Benzopyran-4-one| 5|7-dihydroxy-2-(3|4-dihydroxyphenyl)-3-(beta-D-glucopyranosyloxy)-|NSC-407304|2-(3|4-Dihidroxyphenyl)-3-(beta-D-glucofuranosyloxy)-5|7-dihydroxy-4H-1-benzopyran-4-one|SMR000466391|hydroside|Isoquercitrin (6)|ISOQUERCITRIN?|3-glucoside isoquercitrin|ISOQUERCITRIN MI|ISOQUERCETIN INCI|Quercetin 3-ss-D-glucoside|4H-1-benzopyran-4-one| 2-(3|4-dihydroxyphenyl)-3-(beta-D-glucopyranosyloxy)-5|7-dihydroxy-|IQC-950AN|MLS000759532|MLS001424096|Quercetin 3-O-b-D Glucoside|SCHEMBL181306|QUERCETIN 3beta-GLUCOSIDE|ACon1_002134|cid_5280804|cid_5378597|3-o-beta-d-glucopyranosylquercetin|BDBM153265|HMS2051B17|HY-N1445|BDBM50241354|PDSP1_001363|PDSP2_001347|s3842|AKOS015896729|CCG-100967|DB12665|NC00217|Quercetin-3-O-beta-D-galactopyranoside|AS-35335|QUERCETIN-3-O-.BETA.-D-GLUCOSIDE|Quercetin 3-glucoside| analytical standard|QUERCETIN-3-.BETA.-GLUCOPYRANOSIDE|3-O-.BETA.-D-GLUCOPYRANOSYLQUERCETIN|CS-0016884|NS00069794|C05623|QUERCETIN 3-O-GLUCOPYRANOSIDE WHO-DD|AB00639942-06|Quercetin 3-beta-D-glucoside| >=90% (HPLC)|A871939|3-Glucopyranosyloxy-3'|4'|5|7-tetrahydroxyflavone|Q-100268|Q6086296|BRD-K73991644-001-01-7|Isoquercitrin| primary pharmaceutical reference standard|QUERCETIN 3-O-GLUCOSIDE (CONSTITUENT OF GINKGO)|3'|4'|5|7-TETRAHYDROXYFLAVONE-3-beta-D-GLUCOPYRANOSIDE|2-(3|4-Dihydroxy-phenyl)-5|7-dihydroxy-3-(3|4|5-trihydroxy-6-hydroxymethyl-tetrahydro-pyran-2-yloxy)-chromen-4-one|4H-1-BENZOPYRAN-4-ONE| 2- (3|4-DIHYDROXYPHENYL)-3- (SS-D-GLUCOFURANOSYLOXY)-5|7-DIHYDROXY-|HW2|Isoquercetin|Feruloyl isoquercitrin 4'-glucoside|2-(3|4-dihydroxyphenyl)-5|7-dihydroxy-3-(2S|3R|4S|5S|6R)-3|4|5-trihydroxy-6-(hy|Isoquercitrin Quercetin-3-O-\u221a\u00e9\u00ac\u2264-D-glucoside|quercetin 3-O-_-D-glucoside|quercetin-3-O-glucopyranoside|hirsutrin

>  <cas>  (98) 
482-35-9

$$$$

     RDKit          2D

 21 22  0  0  0  0  0  0  0  0999 V2000
   -6.4971    0.3598    0.0000 C   0  0  0  0  0  0  0  0  0  0  0  0
   -5.2934   -0.5352    0.0000 C   0  0  0  0  0  0  0  0  0  0  0  0
   -5.4666   -2.0252    0.0000 O   0  0  0  0  0  0  0  0  0  0  0  0
   -3.9164    0.0598    0.0000 C   0  0  0  0  0  0  0  0  0  0  0  0
   -3.7432    1.5497    0.0000 C   0  0  0  0  0  0  0  0  0  0  0  0
   -2.3663    2.1447    0.0000 C   0  0  0  0  0  0  0  0  0  0  0  0
   -1.1625    1.2497    0.0000 C   0  0  0  0  0  0  0  0  0  0  0  0
    0.2144    1.8447    0.0000 O   0  0  0  0  0  0  0  0  0  0  0  0
    1.4182    0.9497    0.0000 C   0  0  0  0  0  0  0  0  0  0  0  0
    1.2450   -0.5402    0.0000 O   0  0  0  0  0  0  0  0  0  0  0  0
    2.4487   -1.4352    0.0000 C   0  0  0  0  0  0  0  0  0  0  0  0
    2.2755   -2.9252    0.0000 C   0  0  0  0  0  0  0  0  0  0  0  0
    0.8986   -3.5202    0.0000 O   0  0  0  0  0  0  0  0  0  0  0  0
    3.8257   -0.8402    0.0000 C   0  0  0  0  0  0  0  0  0  0  0  0
    5.0294   -1.7352    0.0000 O   0  0  0  0  0  0  0  0  0  0  0  0
    3.9989    0.6497    0.0000 C   0  0  0  0  0  0  0  0  0  0  0  0
    5.3758    1.2447    0.0000 O   0  0  0  0  0  0  0  0  0  0  0  0
    2.7951    1.5447    0.0000 C   0  0  0  0  0  0  0  0  0  0  0  0
    2.9683    3.0347    0.0000 O   0  0  0  0  0  0  0  0  0  0  0  0
   -1.3357   -0.2402    0.0000 C   0  0  0  0  0  0  0  0  0  0  0  0
   -2.7127   -0.8352    0.0000 C   0  0  0  0  0  0  0  0  0  0  0  0
  1  2  1  0
  2  3  2  0
  2  4  1  0
  4  5  2  0
  5  6  1  0
  6  7  2  0
  7  8  1  0
  9  8  1  1
  9 10  1  0
 10 11  1  0
 11 12  1  1
 12 13  1  0
 11 14  1  0
 14 15  1  6
 14 16  1  0
 16 17  1  1
 16 18  1  0
 18 19  1  6
  7 20  1  0
 20 21  2  0
 21  4  1  0
 18  9  1  0
M  END
>  <identifier>  (99) 
CNP0143206.1

>  <canonical_smiles>  (99) 
CC(=O)C1=CC=C(O[C@@H]2O[C@H](CO)[C@@H](O)[C@H](O)[C@H]2O)C=C1

>  <standard_inchi>  (99) 
InChI=1S/C14H18O7/c1-7(16)8-2-4-9(5-3-8)20-14-13(19)12(18)11(17)10(6-15)21-14/h2-5,10-15,17-19H,6H2,1H3/t10-,11-,12+,13-,14-/m1/s1

>  <standard_inchi_key>  (99) 
GOZCEKPKECLKNO-RKQHYHRCSA-N

>  <name>  (99) 
Picein

>  <iupac_name>  (99) 
1-[4-[(2~{S},3~{R},4~{S},5~{S},6~{R})-3,4,5-trihydroxy-6-(hydroxymethyl)tetrahydropyran-2-yl]oxyphenyl]ethanone

>  <annotation_level>  (99) 
5

>  <total_atom_count>  (99) 
39

>  <heavy_atom_count>  (99) 
21

>  <molecular_weight>  (99) 
298.29

>  <exact_molecular_weight>  (99) 
298.10525

>  <molecular_formula>  (99) 
C14H18O7

>  <alogp>  (99) 
-0.93

>  <topological_polar_surface_area>  (99) 
116.45

>  <rotatable_bond_count>  (99) 
4

>  <hydrogen_bond_acceptors>  (99) 
7

>  <hydrogen_bond_donors>  (99) 
4

>  <hydrogen_bond_acceptors_lipinski>  (99) 
7

>  <hydrogen_bond_donors_lipinski>  (99) 
4

>  <lipinski_rule_of_five_violations>  (99) 
0

>  <aromatic_rings_count>  (99) 
1

>  <qed_drug_likeliness>  (99) 
0.53

>  <formal_charge>  (99) 
0

>  <fractioncsp3>  (99) 
0.50

>  <number_of_minimal_rings>  (99) 
2

>  <van_der_walls_volume>  (99) 
258.67

>  <contains_sugar>  (99) 
True

>  <contains_ring_sugars>  (99) 
True

>  <contains_linear_sugars>  (99) 
False

>  <murcko_framework>  (99) 
O(c1ccccc1)C2OCCCC2

>  <np_likeness>  (99) 
1.44

>  <chemical_class>  (99) 
Organooxygen compounds

>  <chemical_sub_class>  (99) 
Carbonyl compounds

>  <chemical_super_class>  (99) 
Organic oxygen compounds

>  <direct_parent_classification>  (99) 
Alkyl-phenylketones

>  <np_classifier_pathway>  (99) 
nan

>  <np_classifier_superclass>  (99) 
nan

>  <np_classifier_class>  (99) 
nan

>  <np_classifier_is_glycoside>  (99) 
True

>  <organisms>  (99) 
Achlys triphylla|Albizia procera|Alectoria ochroleuca|Arbutus unedo|Artemisia capillaris|Artemisia diffusa|Artemisia giraldii|Artemisia persica|Artemisia porrecta|Brassica rapa|Bulbophyllum protractum|Bursera tonkinensis|Calystegia pubescens|Canthium berberidifolium|Coleogyne ramosissima Torr.|Cypripedium calceolus|Diospyros glaucifolia|Dysidea incrustans|Dysphania ambrosioides|Elymnias thryallis|Fusidium griseum|Glochidion ferdinandii|Hesperocyparis bakeri|Homogyne alpina|Hortonia floribunda|Lactuca laciniata|Lampranthus sociorum|Melanargia galathea|Micromonospora chersina|Millettia pinnata|Montipora digitata|Nauclea rhynchophylla|Neofusicoccum mangiferae|Nephrotoma cornicina|Opuntia ficus-indica|Penicillium cyclopium|Pertusaria amara|Perymenium mendezii|Phyllanthus tenellus|Picea excelsa|Picea glauca|Picrorhiza scrophulariiflora|Picrorrhiza kurrooa|Picrorrhiza scrophulariiflora|Rhodiola crenulata|Rhodiola rosea L.|Rodgersia sambucifolia|Salix babylonica|Salix herbacea|Salix spp.|Salvia officinalis|Tarchonanthus camphoratus|Thea sasanqua|Uruparia lanosa|Vauquelinia corymbosa|Veronica bellidioides|Zhumeria majdae|baccharis sp.

>  <collections>  (99) 
AnalytiCon Discovery NPs|Australian natural products|BIOFACQUIM|CMAUP (cCollective molecular activities of useful plants)|ChEBI NPs|KNApSaCK|Latin America dataset|NPASS|Phyto4Health|Super Natural II|TCMDB-Taiwan (Traditional Chinese Medicine database)|VietHerb|ZINC NP

>  <dois>  (99) 
10.1016/j.bmc.2011.07.036|10.20307/nps.2016.22.2.117|10.3390/molecules200815330

>  <synonyms>  (99) 
530-14-3|L-picein|Ameliaroside|Salicinerein|Salinigrin|Piceoside|4-ACETYLPHENYL BETA-D-GLUCOPYRANOSIDE|4-Acetylphenyl-b-D-glucopyranoside|p-Hydroxyacetophenone-D-glucoside|2H3ACT49CQ|1-4-(2S|3R|4S|5S|6R)-3|4|5-trihydroxy-6-(hydroxymethyl)oxan-2-yloxyphenylethanone|CHEBI:8199|1192351-89-5|1-(4-(((2S|3R|4S|5S|6R)-3|4|5-Trihydroxy-6-(hydroxymethyl)tetrahydro-2H-pyran-2-yl)oxy)phenyl)ethanone|Ethanone| 1-4-(.beta.-D-glucopyranosyloxy)phenyl-|UNII-2H3ACT49CQ|ETHANONE| 1-(4-(.BETA.-D-GLUCOPYRANOSYLOXY)PHENYL)-|Piccin|EINECS 208-473-7|PICEIN MI|Picein| analytical standard|1-4-(beta-D-Glucopyranosyloxy)phenylethanone|MLS002472970|SCHEMBL467772|CHEMBL1512620|DTXSID201031535|HMS2192O04|p-Acetylphenyl-.beta.-D-glucoside|HY-N8698|MFCD00016916|AKOS027446727|4-Acetylphenyl beta -D-Glucopyranoside|FS-6834|NCGC00247461-01|SMR001397077|CS-0148944|NS00042936|A829354|Q7190609|W-203003|1-4-3|4|5-trihydroxy-6-(hydroxymethyl)tetrahydropyran-2-yloxyphenylethanone|1194723-63-1|Picein|picein|piceoside

>  <cas>  (99) 
530-14-3

$$$$

     RDKit          2D

 23 25  0  0  0  0  0  0  0  0999 V2000
   -4.1495    3.9497    0.0000 C   0  0  0  0  0  0  0  0  0  0  0  0
   -4.6997    2.5543    0.0000 O   0  0  0  0  0  0  0  0  0  0  0  0
   -3.7664    1.3801    0.0000 C   0  0  0  0  0  0  0  0  0  0  0  0
   -2.2828    1.6012    0.0000 C   0  0  0  0  0  0  0  0  0  0  0  0
   -1.3494    0.4270    0.0000 C   0  0  0  0  0  0  0  0  0  0  0  0
   -1.8997   -0.9684    0.0000 C   0  0  0  0  0  0  0  0  0  0  0  0
   -3.3833   -1.1896    0.0000 C   0  0  0  0  0  0  0  0  0  0  0  0
   -3.9336   -2.5850    0.0000 O   0  0  0  0  0  0  0  0  0  0  0  0
   -4.3167   -0.0154    0.0000 C   0  0  0  0  0  0  0  0  0  0  0  0
   -5.8003   -0.2365    0.0000 O   0  0  0  0  0  0  0  0  0  0  0  0
   -0.9664   -2.1427    0.0000 C   0  0  0  0  0  0  0  0  0  0  0  0
   -1.5166   -3.5381    0.0000 O   0  0  0  0  0  0  0  0  0  0  0  0
    0.5172   -1.9215    0.0000 C   0  0  0  0  0  0  0  0  0  0  0  0
    1.0675   -0.5261    0.0000 C   0  0  0  0  0  0  0  0  0  0  0  0
    2.5511   -0.3049    0.0000 C   0  0  0  0  0  0  0  0  0  0  0  0
    3.4844   -1.4792    0.0000 C   0  0  0  0  0  0  0  0  0  0  0  0
    4.9681   -1.2580    0.0000 C   0  0  0  0  0  0  0  0  0  0  0  0
    5.5183    0.1374    0.0000 C   0  0  0  0  0  0  0  0  0  0  0  0
    7.0019    0.3586    0.0000 O   0  0  0  0  0  0  0  0  0  0  0  0
    4.5850    1.3116    0.0000 C   0  0  0  0  0  0  0  0  0  0  0  0
    5.1352    2.7071    0.0000 O   0  0  0  0  0  0  0  0  0  0  0  0
    3.1014    1.0905    0.0000 C   0  0  0  0  0  0  0  0  0  0  0  0
    0.1342    0.6481    0.0000 O   0  0  0  0  0  0  0  0  0  0  0  0
  1  2  1  0
  2  3  1  0
  3  4  2  0
  4  5  1  0
  5  6  2  0
  6  7  1  0
  7  8  1  0
  7  9  2  0
  9 10  1  0
  6 11  1  0
 11 12  2  0
 11 13  1  0
 13 14  2  0
 14 15  1  0
 15 16  2  0
 16 17  1  0
 17 18  2  0
 18 19  1  0
 18 20  1  0
 20 21  1  0
 20 22  2  0
 14 23  1  0
  9  3  1  0
 22 15  1  0
 23  5  1  0
M  END
>  <identifier>  (100) 
CNP0159741.0

>  <canonical_smiles>  (100) 
COC1=CC2=C(C(O)=C1O)C(=O)C=C(C1=CC=C(O)C(O)=C1)O2

>  <standard_inchi>  (100) 
InChI=1S/C16H12O7/c1-22-13-6-12-14(16(21)15(13)20)10(19)5-11(23-12)7-2-3-8(17)9(18)4-7/h2-6,17-18,20-21H,1H3

>  <standard_inchi_key>  (100) 
QWUHUBDKQQPMQG-UHFFFAOYSA-N

>  <name>  (100) 
Pedalitin

>  <iupac_name>  (100) 
2-(3,4-dihydroxyphenyl)-5,6-dihydroxy-7-methoxy-chromen-4-one

>  <annotation_level>  (100) 
5

>  <total_atom_count>  (100) 
35

>  <heavy_atom_count>  (100) 
23

>  <molecular_weight>  (100) 
316.27

>  <exact_molecular_weight>  (100) 
316.0583

>  <molecular_formula>  (100) 
C16H12O7

>  <alogp>  (100) 
2.29

>  <topological_polar_surface_area>  (100) 
120.36

>  <rotatable_bond_count>  (100) 
2

>  <hydrogen_bond_acceptors>  (100) 
7

>  <hydrogen_bond_donors>  (100) 
4

>  <hydrogen_bond_acceptors_lipinski>  (100) 
7

>  <hydrogen_bond_donors_lipinski>  (100) 
4

>  <lipinski_rule_of_five_violations>  (100) 
0

>  <aromatic_rings_count>  (100) 
3

>  <qed_drug_likeliness>  (100) 
0.54

>  <formal_charge>  (100) 
0

>  <fractioncsp3>  (100) 
0.06

>  <number_of_minimal_rings>  (100) 
3

>  <van_der_walls_volume>  (100) 
255.69

>  <contains_sugar>  (100) 
False

>  <contains_ring_sugars>  (100) 
False

>  <contains_linear_sugars>  (100) 
False

>  <murcko_framework>  (100) 
O1c2ccccc2CC=C1c3ccccc3

>  <np_likeness>  (100) 
1.41

>  <chemical_class>  (100) 
Flavonoids

>  <chemical_sub_class>  (100) 
O-methylated flavonoids

>  <chemical_super_class>  (100) 
Phenylpropanoids and polyketides

>  <direct_parent_classification>  (100) 
7-O-methylated flavonoids

>  <np_classifier_pathway>  (100) 
Shikimates and Phenylpropanoids

>  <np_classifier_superclass>  (100) 
Flavonoids

>  <np_classifier_class>  (100) 
Flavones

>  <np_classifier_is_glycoside>  (100) 
False

>  <organisms>  (100) 
Aiphanes horrida|Alternaria tagetica|Artemisia arborescens|Artemisia capillaris|Artemisia indica|Artemisia vestita|Caulerpa flexilis|Chenopodium vulvaria|Cirisum japonica var. takaoense|Elateriospermum tapos|Erigeron breviscapus|Erysimum marschallianum|Eupatorium inulaefolium|Frullania dilatata|Frullania spp.|Halleria lucida|Halophila johnsonii|Isodon amethystoides|Isodon japonica var. glaucocalyx|Isodon rubescens var. lushiensis|Isodon rubescens var.lushiensis|Isodon serra|Jungia spectabilis|Kerria japonica|Leiothrix flavescens|Linaria vulgaris|Mentha pulegium|Micromonospora lacustris|Monoclea gottschei|Ophiarachna incrassata|Physalis angulata|Physalis viscosa|Pterogyne nitens|Pyrobaculum neutrophilum|Rabdosia excisa|Rabdosia rubescens|Salvia blepharophylla|Salvia circinata|Sesamum indicum|Sesamum orientale|Sullivantia spp.|Tanacetum vulgare L.|Trachycladiella aurea|Tricholoma orirubens|Viguiera spp.

>  <collections>  (100) 
ANPDB|Australian natural products|BIOFACQUIM|CMAUP (cCollective molecular activities of useful plants)|ChEBI NPs|ChemSpider NPs|FooDB|KNApSaCK|Latin America dataset|NANPDB (Natural Products from Northern African Sources)|NPASS|NPCARE|NPEdia|NuBBEDB|Phyto4Health|SANCDB|Super Natural II|TCMDB-Taiwan (Traditional Chinese Medicine database)|TCMID (Traditional Chinese Medicine Integrated Database)|UNPD (Universal Natural Products Database)|VietHerb

>  <dois>  (100) 
10.1007/s10600-014-0840-0|10.1016/s0031-9422(97)01042-x|10.1021/acs.jnatprod.7b00155|10.1080/14786410601129606|10.1248/cpb.56.723

>  <synonyms>  (100) 
22384-63-0|3'|4'|5|6-Tetrahydroxy-7-methoxyflavone|2-(3|4-dihydroxyphenyl)-5|6-dihydroxy-7-methoxychromen-4-one|FLAVONE| 3'|4'|5|6-TETRAHYDROXY-7-METHOXY-|4H-1-Benzopyran-4-one| 2-(3|4-dihydroxyphenyl)-5|6-dihydroxy-7-methoxy-|CHEBI:7947|CHEMBL476314|DS9S9Z36F2|2-(3|4-dihydroxyphenyl)-5|6-dihydroxy-7-methoxy-4H-1-benzopyran-4-one|5|6|3'|4'-Tetrahydroxy-7-methoxyflavone|2-(3|4-Dihydroxyphenyl)-5|6-dihydroxy-7-methoxy-4H-1-benzopyran-4-one; 5|6|3'|4'-Tetrahydroxy-7-methoxyflavone; 6-Hydroxyluteolin-7-methyl ether|BRN 1296526|UNII-DS9S9Z36F2|SCHEMBL6240689|DTXSID40176915|QWUHUBDKQQPMQG-UHFFFAOYSA-N|HY-N3101|BDBM50412283|LMPK12111231|AKOS040760097|FS-8633|6-HYDROXYLUTEOLIN-7-METHYL ETHER|CS-0023226|Q27089369|Pedalitin|6-Hydroxyluteolin 6-methyl ether|pedalitin

>  <cas>  (100) 
22384-63-0

$$$$

     RDKit          2D

 18 20  0  0  0  0  0  0  0  0999 V2000
    3.9678   -1.9661    0.0000 C   0  0  0  0  0  0  0  0  0  0  0  0
    2.9805   -0.8368    0.0000 C   0  0  0  0  0  0  0  0  0  0  0  0
    3.3137    0.6257    0.0000 C   0  0  0  0  0  0  0  0  0  0  0  0
    4.6928    1.2158    0.0000 O   0  0  0  0  0  0  0  0  0  0  0  0
    2.0257    1.3945    0.0000 O   0  0  0  0  0  0  0  0  0  0  0  0
    0.8965    0.4072    0.0000 C   0  0  0  0  0  0  0  0  0  0  0  0
   -0.5928    0.5857    0.0000 C   0  0  0  0  0  0  0  0  0  0  0  0
   -1.1829    1.9647    0.0000 C   0  0  0  0  0  0  0  0  0  0  0  0
   -0.2837    3.1653    0.0000 C   0  0  0  0  0  0  0  0  0  0  0  0
   -2.6723    2.1432    0.0000 C   0  0  0  0  0  0  0  0  0  0  0  0
   -3.5715    0.9427    0.0000 C   0  0  0  0  0  0  0  0  0  0  0  0
   -2.9814   -0.4364    0.0000 C   0  0  0  0  0  0  0  0  0  0  0  0
   -3.8807   -1.6369    0.0000 O   0  0  0  0  0  0  0  0  0  0  0  0
   -1.4921   -0.6149    0.0000 C   0  0  0  0  0  0  0  0  0  0  0  0
   -2.3914   -1.8154    0.0000 C   0  0  0  0  0  0  0  0  0  0  0  0
   -0.9020   -1.9939    0.0000 C   0  0  0  0  0  0  0  0  0  0  0  0
    0.5873   -2.1724    0.0000 C   0  0  0  0  0  0  0  0  0  0  0  0
    1.4866   -0.9719    0.0000 C   0  0  0  0  0  0  0  0  0  0  0  0
  1  2  2  0
  2  3  1  0
  3  4  2  0
  3  5  1  0
  6  5  1  1
  6  7  1  0
  7  8  1  6
  8  9  1  0
  8 10  2  0
 10 11  1  0
 11 12  1  0
 12 13  1  6
 12 14  1  0
 14 15  1  6
 14 16  1  0
 16 17  1  0
 18 17  1  6
 18  2  1  0
 18  6  1  0
 14  7  1  0
M  END
>  <identifier>  (101) 
CNP0293160.1

>  <canonical_smiles>  (101) 
C=C1C(=O)O[C@@H]2[C@H]3C(C)=CC[C@@H](O)[C@]3(C)CC[C@@H]12

>  <standard_inchi>  (101) 
InChI=1S/C15H20O3/c1-8-4-5-11(16)15(3)7-6-10-9(2)14(17)18-13(10)12(8)15/h4,10-13,16H,2,5-7H2,1,3H3/t10-,11+,12+,13-,15-/m0/s1

>  <standard_inchi_key>  (101) 
PLSSEPIRACGCBO-PFFFPCNUSA-N

>  <name>  (101) 
Santamarine

>  <iupac_name>  (101) 
(3~{a}~{S},5~{a}~{R},6~{R},9~{a}~{S},9~{b}~{S})-6-hydroxy-5~{a},9-dimethyl-3-methylene-4,5,6,7,9~{a},9~{b}-hexahydro-3~{a}~{H}-benzo[g]benzofuran-2-one

>  <annotation_level>  (101) 
5

>  <total_atom_count>  (101) 
38

>  <heavy_atom_count>  (101) 
18

>  <molecular_weight>  (101) 
248.32

>  <exact_molecular_weight>  (101) 
248.14124

>  <molecular_formula>  (101) 
C15H20O3

>  <alogp>  (101) 
2.21

>  <topological_polar_surface_area>  (101) 
46.53

>  <rotatable_bond_count>  (101) 
0

>  <hydrogen_bond_acceptors>  (101) 
3

>  <hydrogen_bond_donors>  (101) 
1

>  <hydrogen_bond_acceptors_lipinski>  (101) 
3

>  <hydrogen_bond_donors_lipinski>  (101) 
1

>  <lipinski_rule_of_five_violations>  (101) 
0

>  <aromatic_rings_count>  (101) 
0

>  <qed_drug_likeliness>  (101) 
0.41

>  <formal_charge>  (101) 
0

>  <fractioncsp3>  (101) 
0.67

>  <number_of_minimal_rings>  (101) 
3

>  <van_der_walls_volume>  (101) 
234.14

>  <contains_sugar>  (101) 
False

>  <contains_ring_sugars>  (101) 
False

>  <contains_linear_sugars>  (101) 
False

>  <murcko_framework>  (101) 
O1CCC2CCC3CCC=CC3C12

>  <np_likeness>  (101) 
3.87

>  <chemical_class>  (101) 
Prenol lipids

>  <chemical_sub_class>  (101) 
Terpene lactones

>  <chemical_super_class>  (101) 
Lipids and lipid-like molecules

>  <direct_parent_classification>  (101) 
Eudesmanolides, secoeudesmanolides, and derivatives

>  <np_classifier_pathway>  (101) 
Terpenoids

>  <np_classifier_superclass>  (101) 
Sesquiterpenoids

>  <np_classifier_class>  (101) 
Eudesmane sesquiterpenoids

>  <np_classifier_is_glycoside>  (101) 
False

>  <organisms>  (101) 
Abrosia confertiflora|Ambrosia confertiflora|Anthemis macedonica|Artemisia argyi|Artemisia balchanorum|Artemisia genipy|Artemisia sp.|Artemisia spp.|Artemisia verlotiorum|Aucklandia lappa|Bovine platelets|Centaurea acaulis|Chrysanthemum parthenium|Chrysanthemum sp.|Cichorium pumilum|Compositae|Cyperus haspan|Dolomiaea souliei|Eriocephalus kingesii|Eupatorium capillifolium|Goniothalamus thwaitesii|Laurus nobilis|Laurus nobilis L.|Michelia compressa|Michelia compressa var. formosana|Neodiprion sertifer|Petalonia fascia|Phoma violacea|Picris koreana (Kitam.) Vorosch.|Salvinia imbricata|Santalum album|Saussurea lappa|Schefferomitra subaequalis|Tanacetum corybosum (L.) Sch. Bip.|Tanacetum parthenium|Tanacetum parthenium (L.) Sch. Bip.|Tanacetum sp.|Tanacetum vulgare L.|Zingiber officinale

>  <collections>  (101) 
ANPDB|Australian natural products|BIOFACQUIM|CMAUP (cCollective molecular activities of useful plants)|ChEBI NPs|FooDB|InflamNat|KNApSaCK|Latin America dataset|NANPDB (Natural Products from Northern African Sources)|NPASS|NPEdia|Super Natural II|TCMDB-Taiwan (Traditional Chinese Medicine database)|TIPdb (database of Taiwan indigenous plants)|TPPT (Toxic Plants–PhytoToxins)|VietHerb|ZINC NP

>  <dois>  (101) 
10.1002/9780470744307.gat218|10.1002/food.19880321030|10.1002/ptr.2650090202|10.1016/j.bse.2005.03.009|10.1016/j.foodchem.2007.02.019|10.1016/j.intimp.2012.04.016|10.1016/j.jep.2017.02.023|10.1016/s0031-9422(00)95017-9|10.1016/s0968-0896(00)00127-9|10.1021/acs.jnatprod.8b00791|10.1021/np030147e|10.1021/np50086a003

>  <synonyms>  (101) 
Santamarin|4290-13-5|Balchanin|(+)-santamarine|(3aS|5aR|6R|9aS|9bS)-6-hydroxy-5a|9-dimethyl-3-methylidene-3a|4|5|5a|6|7|9a|9b-octahydronaphtho1|2-bfuran-2(3H)-one|(3aS|5aR|6R|9aS|9bS)-6-hydroxy-5a|9-dimethyl-3-methylidene-4|5|6|7|9a|9b-hexahydro-3aH-benzog1benzofuran-2-one|CHEBI:9023|15D6KW291H|Santamarin;Balchanin|(3aS)-2|3|3abeta|4|5|5a|6|7|9abeta|9balpha-Decahydro-6alpha-hydroxy-5aalpha|9-dimethyl-3-methylenenaphtho1|2-bfuran-2-one|Naphtho(1|2-b)furan-2(3H)-one| 3a|4|5|5a|6|7|9a|9b-octahydro-6-hydroxy-5a|9-dimethyl-3-methylene-| (3aS|5aR|6R|9aS|9bS)-|UNII-15D6KW291H|CHEMBL89311|SCHEMBL2551388|DTXSID70911513|Eudesma-3|11(13)-dien-12-oic acid| 1.beta.|6.alpha.-dihydroxy-| .gamma.-lactone|HY-N1326|NAPHTHO(1|2-B)FURAN-2(3H)-ONE| 3A|4|5|5A|6|7|9A|9B-OCTAHYDRO-6-HYDROXY-5A|9-DIMETHYL-3-METHYLENE-| (3AS-(3A.ALPHA.|5A.BETA.|6.BETA.|9A.ALPHA.|9B.BETA.))-|AKOS032948408|FS-9890|CS-0016730|NS00094017|C09544|Q27089375|(3AS|5AR|6R|9AS|9BS)-6-HYDROXY-5A|9-DIMETHYL-3-METHYLIDENE-2H|3H|3AH|4H|5H|5AH|6H|7H|9AH|9BH-NAPHTHO1|2-BFURAN-2-ONE|Naphtho(1|2-b)furan-2(3H)-one| 3a|4|5|5a|6|7|9a|9b-octahydro-6-hydroxy-5a|9-dimethyl-3-methylene-| (3aS-(3aalpha|5abeta|6beta|9aalpha|9bbeta))-|Naphthol1|2-bfuran-2(3H)-one|3a|4|5|5a|6|7|9a|9b-octahydro-6-hydroxy-5a|9-dimethyl-3-methylene|Compositae

>  <cas>  (101) 
4290-13-5

$$$$

     RDKit          2D

 20 21  0  0  0  0  0  0  0  0999 V2000
   -6.7729   -0.1844    0.0000 C   0  0  0  0  0  0  0  0  0  0  0  0
   -5.5132   -0.9988    0.0000 O   0  0  0  0  0  0  0  0  0  0  0  0
   -4.1781   -0.3151    0.0000 C   0  0  0  0  0  0  0  0  0  0  0  0
   -4.1026    1.1830    0.0000 C   0  0  0  0  0  0  0  0  0  0  0  0
   -2.7674    1.8667    0.0000 C   0  0  0  0  0  0  0  0  0  0  0  0
   -1.5078    1.0522    0.0000 C   0  0  0  0  0  0  0  0  0  0  0  0
   -0.1727    1.7359    0.0000 O   0  0  0  0  0  0  0  0  0  0  0  0
    1.0870    0.9215    0.0000 C   0  0  0  0  0  0  0  0  0  0  0  0
    1.0115   -0.5766    0.0000 O   0  0  0  0  0  0  0  0  0  0  0  0
    2.2711   -1.3911    0.0000 C   0  0  0  0  0  0  0  0  0  0  0  0
    2.1956   -2.8892    0.0000 C   0  0  0  0  0  0  0  0  0  0  0  0
    0.8605   -3.5728    0.0000 O   0  0  0  0  0  0  0  0  0  0  0  0
    3.6063   -0.7074    0.0000 C   0  0  0  0  0  0  0  0  0  0  0  0
    4.8659   -1.5218    0.0000 O   0  0  0  0  0  0  0  0  0  0  0  0
    3.6818    0.7907    0.0000 C   0  0  0  0  0  0  0  0  0  0  0  0
    5.0169    1.4744    0.0000 O   0  0  0  0  0  0  0  0  0  0  0  0
    2.4221    1.6051    0.0000 C   0  0  0  0  0  0  0  0  0  0  0  0
    2.4976    3.1032    0.0000 O   0  0  0  0  0  0  0  0  0  0  0  0
   -1.5833   -0.4459    0.0000 C   0  0  0  0  0  0  0  0  0  0  0  0
   -2.9184   -1.1295    0.0000 C   0  0  0  0  0  0  0  0  0  0  0  0
  1  2  1  0
  2  3  1  0
  3  4  2  0
  4  5  1  0
  5  6  2  0
  6  7  1  0
  8  7  1  1
  8  9  1  0
  9 10  1  0
 10 11  1  1
 11 12  1  0
 10 13  1  0
 13 14  1  6
 13 15  1  0
 15 16  1  1
 15 17  1  0
 17 18  1  6
  6 19  1  0
 19 20  2  0
 20  3  1  0
 17  8  1  0
M  END
>  <identifier>  (102) 
CNP0236109.1

>  <canonical_smiles>  (102) 
COC1=CC=C(O[C@@H]2O[C@H](CO)[C@@H](O)[C@H](O)[C@H]2O)C=C1

>  <standard_inchi>  (102) 
InChI=1S/C13H18O7/c1-18-7-2-4-8(5-3-7)19-13-12(17)11(16)10(15)9(6-14)20-13/h2-5,9-17H,6H2,1H3/t9-,10-,11+,12-,13-/m1/s1

>  <standard_inchi_key>  (102) 
SIXFVXJMCGPTRB-UJPOAAIJSA-N

>  <name>  (102) 
Methylarbutin

>  <iupac_name>  (102) 
(2~{R},3~{S},4~{S},5~{R},6~{S})-2-(hydroxymethyl)-6-(4-methoxyphenoxy)tetrahydropyran-3,4,5-triol

>  <annotation_level>  (102) 
5

>  <total_atom_count>  (102) 
38

>  <heavy_atom_count>  (102) 
20

>  <molecular_weight>  (102) 
286.28

>  <exact_molecular_weight>  (102) 
286.10525

>  <molecular_formula>  (102) 
C13H18O7

>  <alogp>  (102) 
-1.13

>  <topological_polar_surface_area>  (102) 
108.61

>  <rotatable_bond_count>  (102) 
4

>  <hydrogen_bond_acceptors>  (102) 
7

>  <hydrogen_bond_donors>  (102) 
4

>  <hydrogen_bond_acceptors_lipinski>  (102) 
7

>  <hydrogen_bond_donors_lipinski>  (102) 
4

>  <lipinski_rule_of_five_violations>  (102) 
0

>  <aromatic_rings_count>  (102) 
1

>  <qed_drug_likeliness>  (102) 
0.55

>  <formal_charge>  (102) 
0

>  <fractioncsp3>  (102) 
0.54

>  <number_of_minimal_rings>  (102) 
2

>  <van_der_walls_volume>  (102) 
248.30

>  <contains_sugar>  (102) 
True

>  <contains_ring_sugars>  (102) 
True

>  <contains_linear_sugars>  (102) 
False

>  <murcko_framework>  (102) 
O(c1ccccc1)C2OCCCC2

>  <np_likeness>  (102) 
1.66

>  <chemical_class>  (102) 
Phenol ethers

>  <chemical_sub_class>  (102) 
Anisoles

>  <chemical_super_class>  (102) 
Benzenoids

>  <direct_parent_classification>  (102) 
Anisoles

>  <np_classifier_pathway>  (102) 
Shikimates and Phenylpropanoids

>  <np_classifier_superclass>  (102) 
Phenylpropanoids (C6-C3)

>  <np_classifier_class>  (102) 
Cinnamic acids and derivatives

>  <np_classifier_is_glycoside>  (102) 
True

>  <organisms>  (102) 
Arctostaphylos uve-ursi (L.) Spreng.|Vauquelinia corymbosa

>  <collections>  (102) 
BIOFACQUIM|Latin America dataset|Super Natural II|TPPT (Toxic Plants–PhytoToxins)

>  <dois>  (102) 
10.1002/biuz.19840140514|10.1002/pca.602|10.2903/j.efsa.2012.2663|10.3390/molecules200815330

>  <synonyms>  (102) 
6032-32-2|4-Methoxyphenyl beta-D-Glucopyranoside|p-Methoxyphenyl b-D-glucoside|(2R|3S|4S|5R|6S)-2-(hydroxymethyl)-6-(4-methoxyphenoxy)tetrahydro-2H-pyran-3|4|5-triol|F9MW5FU0XH|methylarbutoside|4-Methoxyphenylglucoside|UNII-F9MW5FU0XH|MFCD06797143|.beta.-D-Glucopyranoside| 4-methoxyphenyl|METHYLARBUTIN MI|(2R|3S|4S|5R|6S)-2-(hydroxymethyl)-6-(4-methoxyphenoxy)oxane-3|4|5-triol|SCHEMBL4187272|CHEBI:81207|DTXSID501032087|AKOS015919128|CS-W010020|P-METHOXYPHENYL .BETA.-D-GLUCOSIDE|M1631|NS00094489|C17599|T72687|A869000|W-203253|Q27155152|Methylarbutin

>  <cas>  (102) 
6032-32-2

$$$$

     RDKit          2D

 26 29  0  0  0  0  0  0  0  0999 V2000
   -6.2426   -0.2253    0.0000 C   0  0  0  0  0  0  0  0  0  0  0  0
   -5.0051   -1.0731    0.0000 C   0  0  0  0  0  0  0  0  0  0  0  0
   -5.1206   -2.5686    0.0000 C   0  0  0  0  0  0  0  0  0  0  0  0
   -3.6522   -0.4253    0.0000 C   0  0  0  0  0  0  0  0  0  0  0  0
   -3.5367    1.0702    0.0000 C   0  0  0  0  0  0  0  0  0  0  0  0
   -4.7742    1.9180    0.0000 O   0  0  0  0  0  0  0  0  0  0  0  0
   -2.1838    1.7180    0.0000 C   0  0  0  0  0  0  0  0  0  0  0  0
   -2.0683    3.2135    0.0000 O   0  0  0  0  0  0  0  0  0  0  0  0
   -0.9464    0.8702    0.0000 C   0  0  0  0  0  0  0  0  0  0  0  0
   -1.0618   -0.6253    0.0000 C   0  0  0  0  0  0  0  0  0  0  0  0
    0.0354   -1.6481    0.0000 C   0  0  0  0  0  0  0  0  0  0  0  0
    1.5192   -1.4279    0.0000 C   0  0  0  0  0  0  0  0  0  0  0  0
    2.5533   -2.5144    0.0000 O   0  0  0  0  0  0  0  0  0  0  0  0
    3.9063   -1.8666    0.0000 C   0  0  0  0  0  0  0  0  0  0  0  0
    5.2255   -2.5804    0.0000 O   0  0  0  0  0  0  0  0  0  0  0  0
    3.7549   -0.3574    0.0000 C   0  0  0  0  0  0  0  0  0  0  0  0
    4.6217   -1.5816    0.0000 C   0  0  0  0  0  0  0  0  0  0  0  0
    4.6927    0.8132    0.0000 C   0  0  0  0  0  0  0  0  0  0  0  0
    4.1479    2.2108    0.0000 C   0  0  0  0  0  0  0  0  0  0  0  0
    2.6651    2.4377    0.0000 C   0  0  0  0  0  0  0  0  0  0  0  0
    2.1203    3.8352    0.0000 O   0  0  0  0  0  0  0  0  0  0  0  0
    1.7273    1.2670    0.0000 C   0  0  0  0  0  0  0  0  0  0  0  0
    0.2949    1.7124    0.0000 C   0  0  0  0  0  0  0  0  0  0  0  0
    2.2721   -0.1305    0.0000 C   0  0  0  0  0  0  0  0  0  0  0  0
   -2.4147   -1.2731    0.0000 C   0  0  0  0  0  0  0  0  0  0  0  0
   -2.5302   -2.7686    0.0000 O   0  0  0  0  0  0  0  0  0  0  0  0
  1  2  1  0
  2  3  1  0
  2  4  1  0
  4  5  2  0
  5  6  1  0
  5  7  1  0
  7  8  2  0
  7  9  1  0
  9 10  2  0
 10 11  1  0
 11 12  2  0
 12 13  1  0
 13 14  1  0
 14 15  2  0
 14 16  1  0
 16 17  1  1
 16 18  1  0
 18 19  1  0
 19 20  1  0
 20 21  1  6
 20 22  1  0
 22 23  2  0
 24 22  1  6
 10 25  1  0
 25 26  2  0
 25  4  1  0
 23  9  1  0
 24 12  1  0
 24 16  1  0
M  END
>  <identifier>  (103) 
CNP0080276.1

>  <canonical_smiles>  (103) 
CC(C)C1=C(O)C(=O)C2=C(C=C3OC(=O)[C@@]4(C)CC[C@@H](O)C(=C2)[C@@H]34)C1=O

>  <standard_inchi>  (103) 
InChI=1S/C20H20O6/c1-8(2)14-16(22)10-7-13-15-11(6-9(10)17(23)18(14)24)12(21)4-5-20(15,3)19(25)26-13/h6-8,12,15,21,24H,4-5H2,1-3H3/t12-,15+,20+/m1/s1

>  <standard_inchi_key>  (103) 
LIOHNCKMCBYMAR-RAJNIJHNSA-N

>  <name>  (103) 
6 7-anhydroballotiquinone

>  <iupac_name>  (103) 
(13~{S},16~{R},17~{R})-5,16-dihydroxy-6-isopropyl-13-methyl-11-oxatetracyclo[8.6.1.0^{3,8}.0^{13,17}]heptadeca-1,3(8),5,9-tetraene-4,7,12-trione

>  <annotation_level>  (103) 
5

>  <total_atom_count>  (103) 
46

>  <heavy_atom_count>  (103) 
26

>  <molecular_weight>  (103) 
356.37

>  <exact_molecular_weight>  (103) 
356.12599

>  <molecular_formula>  (103) 
C20H20O6

>  <alogp>  (103) 
2.06

>  <topological_polar_surface_area>  (103) 
100.90

>  <rotatable_bond_count>  (103) 
1

>  <hydrogen_bond_acceptors>  (103) 
6

>  <hydrogen_bond_donors>  (103) 
2

>  <hydrogen_bond_acceptors_lipinski>  (103) 
6

>  <hydrogen_bond_donors_lipinski>  (103) 
2

>  <lipinski_rule_of_five_violations>  (103) 
0

>  <aromatic_rings_count>  (103) 
0

>  <qed_drug_likeliness>  (103) 
0.55

>  <formal_charge>  (103) 
0

>  <fractioncsp3>  (103) 
0.45

>  <number_of_minimal_rings>  (103) 
4

>  <van_der_walls_volume>  (103) 
309.32

>  <contains_sugar>  (103) 
False

>  <contains_ring_sugars>  (103) 
False

>  <contains_linear_sugars>  (103) 
False

>  <murcko_framework>  (103) 
O1C2=CC3=C(C=C4CCCC(C1)C24)CC=CC3

>  <np_likeness>  (103) 
2.08

>  <chemical_class>  (103) 
Tetrahydrofurans

>  <chemical_sub_class>  (103) 
Tetrahydrofurans

>  <chemical_super_class>  (103) 
Organoheterocyclic compounds

>  <direct_parent_classification>  (103) 
Tetrahydrofurans

>  <np_classifier_pathway>  (103) 
Terpenoids

>  <np_classifier_superclass>  (103) 
Diterpenoids

>  <np_classifier_class>  (103) 
Abeoabietane diterpenoids

>  <np_classifier_is_glycoside>  (103) 
False

>  <organisms>  (103) 
Salvia ballotiflora

>  <collections>  (103) 
BIOFACQUIM|Latin America dataset

>  <dois>  (103) 
10.3390/molecules22101690

>  <synonyms>  (103) 
6 7-anhydroballotiquinone

>  <cas>  (103) 
nan

$$$$

     RDKit          2D

 29 32  0  0  0  0  0  0  0  0999 V2000
    0.5118    4.9841    0.0000 C   0  0  0  0  0  0  0  0  0  0  0  0
    0.9104    3.5381    0.0000 C   0  0  0  0  0  0  0  0  0  0  0  0
    2.3621    3.1603    0.0000 O   0  0  0  0  0  0  0  0  0  0  0  0
   -0.1425    2.4698    0.0000 O   0  0  0  0  0  0  0  0  0  0  0  0
    0.2562    1.0238    0.0000 C   0  0  0  0  0  0  0  0  0  0  0  0
    1.7320    0.7555    0.0000 C   0  0  0  0  0  0  0  0  0  0  0  0
    2.4424   -0.5655    0.0000 C   0  0  0  0  0  0  0  0  0  0  0  0
    1.8525   -1.9447    0.0000 C   0  0  0  0  0  0  0  0  0  0  0  0
    2.7520   -3.1451    0.0000 C   0  0  0  0  0  0  0  0  0  0  0  0
    4.2413   -2.9664    0.0000 C   0  0  0  0  0  0  0  0  0  0  0  0
    4.8312   -1.5873    0.0000 C   0  0  0  0  0  0  0  0  0  0  0  0
    3.9318   -0.3868    0.0000 C   0  0  0  0  0  0  0  0  0  0  0  0
    4.5217    0.9923    0.0000 C   0  0  0  0  0  0  0  0  0  0  0  0
    2.7054    0.4769    0.0000 C   0  0  0  0  0  0  0  0  0  0  0  0
    2.6833    1.9768    0.0000 O   0  0  0  0  0  0  0  0  0  0  0  0
    1.5050   -0.4225    0.0000 O   0  0  0  0  0  0  0  0  0  0  0  0
    0.4065   -2.3434    0.0000 C   0  0  0  0  0  0  0  0  0  0  0  0
   -0.8068   -1.4614    0.0000 C   0  0  0  0  0  0  0  0  0  0  0  0
   -0.8737    0.0371    0.0000 C   0  0  0  0  0  0  0  0  0  0  0  0
   -2.2049    0.7284    0.0000 C   0  0  0  0  0  0  0  0  0  0  0  0
   -2.2718    2.2270    0.0000 O   0  0  0  0  0  0  0  0  0  0  0  0
   -3.4692   -0.0788    0.0000 C   0  0  0  0  0  0  0  0  0  0  0  0
   -4.8004    0.6126    0.0000 C   0  0  0  0  0  0  0  0  0  0  0  0
   -4.8673    2.1111    0.0000 C   0  0  0  0  0  0  0  0  0  0  0  0
   -6.0647   -0.1946    0.0000 C   0  0  0  0  0  0  0  0  0  0  0  0
   -3.4023   -1.5773    0.0000 C   0  0  0  0  0  0  0  0  0  0  0  0
   -4.6666   -2.3845    0.0000 O   0  0  0  0  0  0  0  0  0  0  0  0
   -2.0711   -2.2686    0.0000 C   0  0  0  0  0  0  0  0  0  0  0  0
   -2.0042   -3.7671    0.0000 O   0  0  0  0  0  0  0  0  0  0  0  0
  1  2  1  0
  2  3  2  0
  2  4  1  0
  5  4  1  6
  5  6  1  0
  7  6  1  1
  7  8  1  0
  8  9  1  1
  9 10  1  0
 10 11  1  0
 11 12  1  0
 12 13  1  6
 12 14  1  0
 14 15  2  0
 14 16  1  0
  8 17  1  0
 17 18  1  0
 18 19  2  0
 19 20  1  0
 20 21  2  0
 20 22  1  0
 22 23  1  0
 23 24  1  0
 23 25  1  0
 22 26  2  0
 26 27  1  0
 26 28  1  0
 28 29  2  0
 19  5  1  0
 12  7  1  0
 28 18  1  0
 16  8  1  0
M  END
>  <identifier>  (104) 
CNP0208025.1

>  <canonical_smiles>  (104) 
CC(=O)O[C@@H]1C[C@@H]2[C@]3(CCC[C@]2(C)C(=O)O3)CC2=C1C(=O)C(C(C)C)=C(O)C2=O

>  <standard_inchi>  (104) 
InChI=1S/C22H26O7/c1-10(2)15-18(25)16-12(17(24)19(15)26)9-22-7-5-6-21(4,20(27)29-22)14(22)8-13(16)28-11(3)23/h10,13-14,26H,5-9H2,1-4H3/t13-,14+,21+,22+/m1/s1

>  <standard_inchi_key>  (104) 
HHYNJJSTUPNMQU-RUGJYQHNSA-N

>  <name>  (104) 
7a-acetoxy-6 7-dihydroicetexone

>  <iupac_name>  (104) 
[(1~{S},9~{R},11~{S},12~{S})-5-hydroxy-6-isopropyl-12-methyl-4,7,17-trioxo-16-oxatetracyclo[10.3.2.0^{1,11}.0^{3,8}]heptadeca-3(8),5-dien-9-yl] acetate

>  <annotation_level>  (104) 
5

>  <total_atom_count>  (104) 
55

>  <heavy_atom_count>  (104) 
29

>  <molecular_weight>  (104) 
402.44

>  <exact_molecular_weight>  (104) 
402.16785

>  <molecular_formula>  (104) 
C22H26O7

>  <alogp>  (104) 
2.73

>  <topological_polar_surface_area>  (104) 
106.97

>  <rotatable_bond_count>  (104) 
2

>  <hydrogen_bond_acceptors>  (104) 
7

>  <hydrogen_bond_donors>  (104) 
1

>  <hydrogen_bond_acceptors_lipinski>  (104) 
7

>  <hydrogen_bond_donors_lipinski>  (104) 
1

>  <lipinski_rule_of_five_violations>  (104) 
0

>  <aromatic_rings_count>  (104) 
0

>  <qed_drug_likeliness>  (104) 
0.56

>  <formal_charge>  (104) 
0

>  <fractioncsp3>  (104) 
0.64

>  <number_of_minimal_rings>  (104) 
4

>  <van_der_walls_volume>  (104) 
357.06

>  <contains_sugar>  (104) 
False

>  <contains_ring_sugars>  (104) 
False

>  <contains_linear_sugars>  (104) 
False

>  <murcko_framework>  (104) 
O1CC2CCCC13CC4=C(CC=CC4)CCC23

>  <np_likeness>  (104) 
2.55

>  <chemical_class>  (104) 
Lactones

>  <chemical_sub_class>  (104) 
Gamma butyrolactones

>  <chemical_super_class>  (104) 
Organoheterocyclic compounds

>  <direct_parent_classification>  (104) 
Gamma butyrolactones

>  <np_classifier_pathway>  (104) 
Terpenoids

>  <np_classifier_superclass>  (104) 
Diterpenoids

>  <np_classifier_class>  (104) 
Abietane diterpenoids

>  <np_classifier_is_glycoside>  (104) 
False

>  <organisms>  (104) 
Salvia ballotiflora

>  <collections>  (104) 
BIOFACQUIM|Latin America dataset

>  <dois>  (104) 
10.3390/molecules22101690

>  <synonyms>  (104) 
7a-acetoxy-6 7-dihydroicetexone

>  <cas>  (104) 
nan

$$$$

     RDKit          2D

 32 36  0  0  0  0  0  0  0  0999 V2000
   -3.2653   -3.0064    0.0000 C   0  0  0  0  0  0  0  0  0  0  0  0
   -3.9573   -1.6756    0.0000 C   0  0  0  0  0  0  0  0  0  0  0  0
   -5.4559   -1.6095    0.0000 C   0  0  0  0  0  0  0  0  0  0  0  0
   -6.2624   -2.8742    0.0000 C   0  0  0  0  0  0  0  0  0  0  0  0
   -6.1479   -0.2787    0.0000 C   0  0  0  0  0  0  0  0  0  0  0  0
   -5.3414    0.9860    0.0000 C   0  0  0  0  0  0  0  0  0  0  0  0
   -3.8429    0.9199    0.0000 C   0  0  0  0  0  0  0  0  0  0  0  0
   -4.5349    2.2508    0.0000 C   0  0  0  0  0  0  0  0  0  0  0  0
   -3.7284    3.5155    0.0000 O   0  0  0  0  0  0  0  0  0  0  0  0
   -3.0363    2.1847    0.0000 C   0  0  0  0  0  0  0  0  0  0  0  0
   -1.5378    2.1186    0.0000 C   0  0  0  0  0  0  0  0  0  0  0  0
   -0.8458    0.7877    0.0000 C   0  0  0  0  0  0  0  0  0  0  0  0
   -0.1537   -0.5431    0.0000 C   0  0  0  0  0  0  0  0  0  0  0  0
   -1.6523   -0.4770    0.0000 C   0  0  0  0  0  0  0  0  0  0  0  0
   -0.9603   -1.8078    0.0000 C   0  0  0  0  0  0  0  0  0  0  0  0
    0.5383   -1.8739    0.0000 C   0  0  0  0  0  0  0  0  0  0  0  0
    1.3448   -0.6092    0.0000 C   0  0  0  0  0  0  0  0  0  0  0  0
    2.8433   -0.6753    0.0000 C   0  0  0  0  0  0  0  0  0  0  0  0
    2.0368   -1.9400    0.0000 C   0  0  0  0  0  0  0  0  0  0  0  0
    3.5354   -2.0061    0.0000 C   0  0  0  0  0  0  0  0  0  0  0  0
    5.0339   -2.0722    0.0000 C   0  0  0  0  0  0  0  0  0  0  0  0
    5.8404   -0.8075    0.0000 C   0  0  0  0  0  0  0  0  0  0  0  0
    7.3390   -0.8736    0.0000 O   0  0  0  0  0  0  0  0  0  0  0  0
    5.1484    0.5233    0.0000 C   0  0  0  0  0  0  0  0  0  0  0  0
    4.9533    2.0106    0.0000 C   0  0  0  0  0  0  0  0  0  0  0  0
    6.5792    0.9737    0.0000 C   0  0  0  0  0  0  0  0  0  0  0  0
    3.6499    0.5894    0.0000 C   0  0  0  0  0  0  0  0  0  0  0  0
    2.9578    1.9203    0.0000 C   0  0  0  0  0  0  0  0  0  0  0  0
    1.4593    1.9864    0.0000 C   0  0  0  0  0  0  0  0  0  0  0  0
    0.6528    0.7216    0.0000 C   0  0  0  0  0  0  0  0  0  0  0  0
   -0.0392    2.0525    0.0000 C   0  0  0  0  0  0  0  0  0  0  0  0
   -3.1508   -0.4109    0.0000 C   0  0  0  0  0  0  0  0  0  0  0  0
  2  1  1  1
  2  3  1  0
  3  4  1  6
  3  5  1  0
  5  6  1  0
  6  7  1  0
  7  8  1  1
  8  9  1  0
  7 10  1  0
 10 11  1  0
 11 12  1  0
 12 13  1  6
 12 14  1  0
 14 15  2  0
 15 16  1  0
 17 16  1  1
 17 18  1  0
 18 19  1  1
 18 20  1  0
 20 21  1  0
 21 22  1  0
 22 23  1  1
 22 24  1  0
 24 25  1  0
 24 26  1  0
 24 27  1  0
 27 28  1  1
 28 29  1  0
 29 30  1  0
 30 31  1  1
 32 14  1  6
 32  2  1  0
 32  7  1  0
 30 12  1  0
 30 17  1  0
 27 18  1  0
M  END
>  <identifier>  (105) 
CNP0249388.1

>  <canonical_smiles>  (105) 
C[C@H]1[C@H](C)CC[C@]2(CO)CC[C@]3(C)C(=CC[C@@H]4[C@@]5(C)CC[C@H](O)C(C)(C)[C@@H]5CC[C@]43C)[C@H]12

>  <standard_inchi>  (105) 
InChI=1S/C30H50O2/c1-19-10-15-30(18-31)17-16-28(6)21(25(30)20(19)2)8-9-23-27(5)13-12-24(32)26(3,4)22(27)11-14-29(23,28)7/h8,19-20,22-25,31-32H,9-18H2,1-7H3/t19-,20+,22+,23-,24+,25+,27+,28-,29-,30-/m1/s1

>  <standard_inchi_key>  (105) 
XUARCIYIVXVTAE-ZAPOICBTSA-N

>  <name>  (105) 
Uvaol

>  <iupac_name>  (105) 
(3~{S},4~{a}~{R},6~{a}~{R},6~{b}~{S},8~{a}~{S},11~{R},12~{S},12~{a}~{S},14~{a}~{R},14~{b}~{R})-8~{a}-(hydroxymethyl)-4,4,6~{a},6~{b},11,12,14~{b}-heptamethyl-2,3,4~{a},5,6,7,8,9,10,11,12,12~{a},14,14~{a}-tetradecahydro-1~{H}-picen-3-ol

>  <annotation_level>  (105) 
5

>  <total_atom_count>  (105) 
82

>  <heavy_atom_count>  (105) 
32

>  <molecular_weight>  (105) 
442.73

>  <exact_molecular_weight>  (105) 
442.38108

>  <molecular_formula>  (105) 
C30H50O2

>  <alogp>  (105) 
7.00

>  <topological_polar_surface_area>  (105) 
40.46

>  <rotatable_bond_count>  (105) 
1

>  <hydrogen_bond_acceptors>  (105) 
2

>  <hydrogen_bond_donors>  (105) 
2

>  <hydrogen_bond_acceptors_lipinski>  (105) 
2

>  <hydrogen_bond_donors_lipinski>  (105) 
2

>  <lipinski_rule_of_five_violations>  (105) 
1

>  <aromatic_rings_count>  (105) 
0

>  <qed_drug_likeliness>  (105) 
0.43

>  <formal_charge>  (105) 
0

>  <fractioncsp3>  (105) 
0.93

>  <number_of_minimal_rings>  (105) 
5

>  <van_der_walls_volume>  (105) 
454.66

>  <contains_sugar>  (105) 
False

>  <contains_ring_sugars>  (105) 
False

>  <contains_linear_sugars>  (105) 
False

>  <murcko_framework>  (105) 
C1=C2C3CCCCC3CCC2C4CCC5CCCCC5C4C1

>  <np_likeness>  (105) 
3.28

>  <chemical_class>  (105) 
Prenol lipids

>  <chemical_sub_class>  (105) 
Triterpenoids

>  <chemical_super_class>  (105) 
Lipids and lipid-like molecules

>  <direct_parent_classification>  (105) 
Taraxastane, ursane, and bauerane triterpenoids

>  <np_classifier_pathway>  (105) 
Terpenoids

>  <np_classifier_superclass>  (105) 
Triterpenoids

>  <np_classifier_class>  (105) 
Ursane and Taraxastane triterpenoids

>  <np_classifier_is_glycoside>  (105) 
False

>  <organisms>  (105) 
Aconitum brevicalcaratum|Adenopeltis colliguaya|Amaracus pampanini|Ammodendron conollyi|Arrabidaea samydoides|Aspergillus arenarius|Aspergillus quadrilineatus|Bituminaria bituminosa|Bombus hortorum|Centaurea seridis|Ceratocystis clavigera|Cereus weberi|Chrozophora obliqua|Cirsium dipsacolepis|Cneorum pulverulentum|Cocculus diversifolius|Coleus garckeanus|Consolida ajacis|Crinum kirkii|Croton rhamnifolius|Cytisus scoparius|Dalbergia stipulacea|Dinemasporium strigosum|Diospyros kaki|Diospyros lotus|Diospyros maingayi|Elaeagnus commutata|Eria subsessilis|Eriobotrya japonica|Eucalyptus flocktoniae|Euphorbia micractina|Euphorbia paralias|Flindersia brayleyana|Fucus spiralis|Gerbera piloselloides|Heracleum sphondylium|Hypericum triquetrifolium|Ilex latifolia|Isodon japonicus|Jungermannia obovata|Knightia deplanchei|Kummerowia striata|Lyophyllum shimeji|Mactra chinensis|Malmea depressa|Malva sylvestris|Mascarenhasia arborescens|Meconopsis napaulensis|Merremia umbellata|Mesembryanthemum anatomicum|Microtropis fokienensis|Millettia conraui|Myrica multiflora|Nerium oleander|Nuxia sphaerocephala|Olea europaea|Ophiarthrum elegans|Ormosia panamensis|Osmanthus fragrans|Osmerus mordax|Palafoxia rosea|Parerythropodium fulvum|Pedicularis condensata|Perityle vaseyi|Phoebe formosana|Plantago lanceolata|Polylepis incana|Porella swartziana|Prunus avium|Prunus serotina|Ptilidium ciliare|Quercus mongolica|Rheum webbianum|Rhododendron ferrugineum|Rhynchosporium orthosporum|Salacia chinensis|Salvia coulteri|Satureja cuneifolia|Scutellaria seleriana|Senecio flavus|Sida cordifolia|Solanum racemigerum|Solanum sisymbriifolium|Solenopsis invicta|Spodoptera littoralis|Stigmatella aurantiaca|Streptomyces eurythermus|Streptomyces fradiae|Streptomyces mobaraensis|Strychnos mitscherlichii|Strychnos spinosa|Syzygium corticosum|Syzygium formosanum|Teucrium pestalozzae|Thymbra spicata|Trichia floriformis|Trifolium apertum|Tripodanthus acutifolius|Turraeanthus mannii|Veronica pectinata|Verpa digitaliformis|Viguiera annua|Vladimiria muliensis|ilex sp.

>  <collections>  (105) 
ANPDB|BIOFACQUIM|CMAUP (cCollective molecular activities of useful plants)|ChEBI NPs|ChemSpider NPs|KNApSaCK|Latin America dataset|NANPDB (Natural Products from Northern African Sources)|NPASS|NuBBEDB|Phyto4Health|Super Natural II|TCMDB-Taiwan (Traditional Chinese Medicine database)|TIPdb (database of Taiwan indigenous plants)|VietHerb

>  <dois>  (105) 
10.1016/j.bmc.2010.01.010|10.1016/j.bmc.2018.07.025|10.1021/np040059+|10.1021/np040072u|10.1021/np060369n|10.1021/np070038q|10.1021/np070483l|10.1021/np100778k|10.1021/np50035a027|10.1021/np900305j|10.1590/S0100-40422003000500003|10.3390/molecules21010078

>  <synonyms>  (105) 
545-46-0|Urs-12-ene-3beta|28-diol|Urs-12-ene-3|28-diol| (3b)-|CHEMBL399873|W599R31ROT|CHEBI:67894|(3beta)-Urs-12-ene-3|28-diol|MFCD00009620|UNII-W599R31ROT|NSC-159627|EINECS 208-888-3|UVALOL|Uvaol (AS)|Uvaol| >=95%|(3S|4aR|6aR|6bS|8aS|11R|12S|12aS|14aR|14bR)-8a-(hydroxymethyl)-4|4|6a|6b|11|12|14b-heptamethyl-2|3|4a|5|6|7|8|9|10|11|12|12a|14|14a-tetradecahydro-1H-picen-3-ol|SCHEMBL337913|BCBcMAP01_000233|XUARCIYIVXVTAE-ZAPOICBTSA-N|3-beta|28-Dihydroxy-urs-12-ene|HY-N1109|3|28-DIHYDROXYURS-12-ENE|BDBM50218196|s9551|AKOS016036269|SMP1_000309|URS-12-EN-3.BETA.|28-DIOL|AS-84026|Urs-12-ene-3|28-diol| (3.beta.)|3.BETA.|28-DIHYDROXYURS-12-ENE|1ST001408|CS-0016397|NS00043850|SR-05000002219|Q27136369|(3S|4aR|6aR|6bS|8aS|11R|12S|12aS|14bR)-8a-Hydroxymethyl-4|4|6a|6b|11|12|14b-heptamethyl-1|2|3|4|4a|5|6|6a|6b|7|8|8a|9|10|11|12|12a|14|14a|14b-eicosahydro-picen-3-ol|Uvaol|uvaol

>  <cas>  (105) 
545-46-0

$$$$

     RDKit          2D

 27 30  0  0  0  0  0  0  0  0999 V2000
   -6.2279   -0.0748    0.0000 C   0  0  0  0  0  0  0  0  0  0  0  0
   -4.9955   -0.9298    0.0000 C   0  0  0  0  0  0  0  0  0  0  0  0
   -5.1197   -2.4247    0.0000 C   0  0  0  0  0  0  0  0  0  0  0  0
   -3.6388   -0.2900    0.0000 C   0  0  0  0  0  0  0  0  0  0  0  0
   -3.5146    1.2049    0.0000 C   0  0  0  0  0  0  0  0  0  0  0  0
   -4.7470    2.0599    0.0000 O   0  0  0  0  0  0  0  0  0  0  0  0
   -2.1579    1.8447    0.0000 C   0  0  0  0  0  0  0  0  0  0  0  0
   -2.0337    3.3396    0.0000 O   0  0  0  0  0  0  0  0  0  0  0  0
   -0.9254    0.9897    0.0000 C   0  0  0  0  0  0  0  0  0  0  0  0
   -1.0496   -0.5051    0.0000 C   0  0  0  0  0  0  0  0  0  0  0  0
   -2.4063   -1.1450    0.0000 C   0  0  0  0  0  0  0  0  0  0  0  0
   -2.5305   -2.6398    0.0000 O   0  0  0  0  0  0  0  0  0  0  0  0
    0.0417   -1.5342    0.0000 C   0  0  0  0  0  0  0  0  0  0  0  0
   -0.4121   -2.9640    0.0000 O   0  0  0  0  0  0  0  0  0  0  0  0
    1.5267   -1.3227    0.0000 C   0  0  0  0  0  0  0  0  0  0  0  0
    2.5544   -2.4153    0.0000 O   0  0  0  0  0  0  0  0  0  0  0  0
    3.9111   -1.7754    0.0000 C   0  0  0  0  0  0  0  0  0  0  0  0
    5.2262   -2.4969    0.0000 O   0  0  0  0  0  0  0  0  0  0  0  0
    3.7686   -0.2654    0.0000 C   0  0  0  0  0  0  0  0  0  0  0  0
    4.6282   -1.4946    0.0000 C   0  0  0  0  0  0  0  0  0  0  0  0
    4.7133    0.8998    0.0000 C   0  0  0  0  0  0  0  0  0  0  0  0
    4.1766    2.3005    0.0000 C   0  0  0  0  0  0  0  0  0  0  0  0
    2.6952    2.5360    0.0000 C   0  0  0  0  0  0  0  0  0  0  0  0
    2.1585    3.9367    0.0000 O   0  0  0  0  0  0  0  0  0  0  0  0
    1.7505    1.3709    0.0000 C   0  0  0  0  0  0  0  0  0  0  0  0
    0.3208    1.8246    0.0000 C   0  0  0  0  0  0  0  0  0  0  0  0
    2.2872   -0.0298    0.0000 C   0  0  0  0  0  0  0  0  0  0  0  0
  1  2  1  0
  2  3  1  0
  2  4  1  0
  4  5  2  0
  5  6  1  0
  5  7  1  0
  7  8  2  0
  7  9  1  0
  9 10  2  0
 10 11  1  0
 11 12  2  0
 10 13  1  0
 13 14  1  1
 13 15  1  0
 15 16  1  1
 16 17  1  0
 17 18  2  0
 17 19  1  0
 19 20  1  1
 19 21  1  0
 21 22  1  0
 22 23  1  0
 23 24  1  6
 23 25  1  0
 25 26  2  0
 27 25  1  6
 11  4  1  0
 27 15  1  0
 26  9  1  0
 27 19  1  0
M  END
>  <identifier>  (106) 
CNP0211317.1

>  <canonical_smiles>  (106) 
CC(C)C1=C(O)C(=O)C2=C(C1=O)[C@H](O)[C@@H]1OC(=O)[C@@]3(C)CC[C@@H](O)C(=C2)[C@@H]13

>  <standard_inchi>  (106) 
InChI=1S/C20H22O7/c1-7(2)11-15(23)12-9(14(22)16(11)24)6-8-10(21)4-5-20(3)13(8)18(17(12)25)27-19(20)26/h6-7,10,13,17-18,21,24-25H,4-5H2,1-3H3/t10-,13+,17+,18-,20+/m1/s1

>  <standard_inchi_key>  (106) 
JTCUWDQRUWSZLA-PSCQKVGZSA-N

>  <name>  (106) 
Ballotiquinone

>  <iupac_name>  (106) 
(9~{S},10~{R},13~{S},16~{R},17~{R})-5,9,16-trihydroxy-6-isopropyl-13-methyl-11-oxatetracyclo[8.6.1.0^{3,8}.0^{13,17}]heptadeca-1,3(8),5-triene-4,7,12-trione

>  <annotation_level>  (106) 
5

>  <total_atom_count>  (106) 
49

>  <heavy_atom_count>  (106) 
27

>  <molecular_weight>  (106) 
374.39

>  <exact_molecular_weight>  (106) 
374.13655

>  <molecular_formula>  (106) 
C20H22O7

>  <alogp>  (106) 
0.91

>  <topological_polar_surface_area>  (106) 
121.13

>  <rotatable_bond_count>  (106) 
1

>  <hydrogen_bond_acceptors>  (106) 
7

>  <hydrogen_bond_donors>  (106) 
3

>  <hydrogen_bond_acceptors_lipinski>  (106) 
7

>  <hydrogen_bond_donors_lipinski>  (106) 
3

>  <lipinski_rule_of_five_violations>  (106) 
0

>  <aromatic_rings_count>  (106) 
0

>  <qed_drug_likeliness>  (106) 
0.46

>  <formal_charge>  (106) 
0

>  <fractioncsp3>  (106) 
0.55

>  <number_of_minimal_rings>  (106) 
4

>  <van_der_walls_volume>  (106) 
322.47

>  <contains_sugar>  (106) 
False

>  <contains_ring_sugars>  (106) 
False

>  <contains_linear_sugars>  (106) 
False

>  <murcko_framework>  (106) 
O1CC2CCCC3=CC4=C(CC=CC4)CC1C32

>  <np_likeness>  (106) 
2.42

>  <chemical_class>  (106) 
Lactones

>  <chemical_sub_class>  (106) 
Gamma butyrolactones

>  <chemical_super_class>  (106) 
Organoheterocyclic compounds

>  <direct_parent_classification>  (106) 
Gamma butyrolactones

>  <np_classifier_pathway>  (106) 
Terpenoids

>  <np_classifier_superclass>  (106) 
Diterpenoids

>  <np_classifier_class>  (106) 
Abeoabietane diterpenoids

>  <np_classifier_is_glycoside>  (106) 
False

>  <organisms>  (106) 
Salvia ballotiflora

>  <collections>  (106) 
BIOFACQUIM|Latin America dataset

>  <dois>  (106) 
10.3390/molecules22101690

>  <synonyms>  (106) 
Ballotiquinone

>  <cas>  (106) 
nan

$$$$

     RDKit          2D

 26 29  0  0  0  0  0  0  0  0999 V2000
   -4.9127    2.1717    0.0000 C   0  0  0  0  0  0  0  0  0  0  0  0
   -4.7253    0.6834    0.0000 C   0  0  0  0  0  0  0  0  0  0  0  0
   -5.9204   -0.2230    0.0000 C   0  0  0  0  0  0  0  0  0  0  0  0
   -3.3427    0.1016    0.0000 C   0  0  0  0  0  0  0  0  0  0  0  0
   -3.1553   -1.3866    0.0000 C   0  0  0  0  0  0  0  0  0  0  0  0
   -4.3504   -2.2931    0.0000 O   0  0  0  0  0  0  0  0  0  0  0  0
   -1.7727   -1.9685    0.0000 C   0  0  0  0  0  0  0  0  0  0  0  0
   -1.5853   -3.4567    0.0000 O   0  0  0  0  0  0  0  0  0  0  0  0
   -0.5776   -1.0620    0.0000 C   0  0  0  0  0  0  0  0  0  0  0  0
    0.7028   -1.8434    0.0000 C   0  0  0  0  0  0  0  0  0  0  0  0
    2.1121   -1.3295    0.0000 C   0  0  0  0  0  0  0  0  0  0  0  0
    3.1053   -2.4536    0.0000 C   0  0  0  0  0  0  0  0  0  0  0  0
    4.5754   -2.1555    0.0000 C   0  0  0  0  0  0  0  0  0  0  0  0
    5.0522   -0.7333    0.0000 C   0  0  0  0  0  0  0  0  0  0  0  0
    4.0590    0.3908    0.0000 C   0  0  0  0  0  0  0  0  0  0  0  0
    4.5359    1.8130    0.0000 C   0  0  0  0  0  0  0  0  0  0  0  0
    2.7671    1.1529    0.0000 C   0  0  0  0  0  0  0  0  0  0  0  0
    2.6242    2.6461    0.0000 O   0  0  0  0  0  0  0  0  0  0  0  0
    1.6430    0.1597    0.0000 O   0  0  0  0  0  0  0  0  0  0  0  0
    2.5889    0.0927    0.0000 C   0  0  0  0  0  0  0  0  0  0  0  0
    1.7744    1.3522    0.0000 C   0  0  0  0  0  0  0  0  0  0  0  0
    0.2817    1.5007    0.0000 C   0  0  0  0  0  0  0  0  0  0  0  0
   -0.2322    2.9099    0.0000 O   0  0  0  0  0  0  0  0  0  0  0  0
   -0.7650    0.4262    0.0000 C   0  0  0  0  0  0  0  0  0  0  0  0
   -2.1476    1.0080    0.0000 C   0  0  0  0  0  0  0  0  0  0  0  0
   -2.3350    2.4963    0.0000 O   0  0  0  0  0  0  0  0  0  0  0  0
  1  2  1  0
  2  3  1  0
  2  4  1  0
  4  5  2  0
  5  6  1  0
  5  7  1  0
  7  8  1  0
  7  9  2  0
  9 10  1  0
 11 10  1  1
 11 12  1  0
 12 13  1  0
 13 14  1  0
 14 15  1  0
 15 16  1  6
 15 17  1  0
 17 18  2  0
 17 19  1  0
 15 20  1  0
 20 21  1  0
 21 22  1  0
 22 23  2  0
 22 24  1  0
 24 25  2  0
 25 26  1  0
 25  4  1  0
 24  9  1  0
 19 11  1  0
 20 11  1  0
M  END
>  <identifier>  (107) 
CNP0233224.1

>  <canonical_smiles>  (107) 
CC(C)C1=C(O)C(O)=C2C[C@@]34CCC[C@](C)(C(=O)O3)C4CC(=O)C2=C1O

>  <standard_inchi>  (107) 
InChI=1S/C20H24O6/c1-9(2)13-16(23)14-10(15(22)17(13)24)8-20-6-4-5-19(3,18(25)26-20)12(20)7-11(14)21/h9,12,22-24H,4-8H2,1-3H3/t12?,19-,20+/m0/s1

>  <standard_inchi_key>  (107) 
MENXOAAQJIIUMB-IWSJWDQHSA-N

>  <name>  (107) 
6 7 11 14-tetrahydro-7-oxo-icetexone

>  <iupac_name>  (107) 
(1~{R},12~{S})-4,5,7-trihydroxy-6-isopropyl-12-methyl-16-oxatetracyclo[10.3.2.0^{1,11}.0^{3,8}]heptadeca-3,5,7-triene-9,17-dione

>  <annotation_level>  (107) 
5

>  <total_atom_count>  (107) 
50

>  <heavy_atom_count>  (107) 
26

>  <molecular_weight>  (107) 
360.41

>  <exact_molecular_weight>  (107) 
360.15729

>  <molecular_formula>  (107) 
C20H24O6

>  <alogp>  (107) 
3.16

>  <topological_polar_surface_area>  (107) 
104.06

>  <rotatable_bond_count>  (107) 
1

>  <hydrogen_bond_acceptors>  (107) 
6

>  <hydrogen_bond_donors>  (107) 
3

>  <hydrogen_bond_acceptors_lipinski>  (107) 
6

>  <hydrogen_bond_donors_lipinski>  (107) 
3

>  <lipinski_rule_of_five_violations>  (107) 
0

>  <aromatic_rings_count>  (107) 
1

>  <qed_drug_likeliness>  (107) 
0.40

>  <formal_charge>  (107) 
0

>  <fractioncsp3>  (107) 
0.60

>  <number_of_minimal_rings>  (107) 
4

>  <van_der_walls_volume>  (107) 
nan

>  <contains_sugar>  (107) 
False

>  <contains_ring_sugars>  (107) 
False

>  <contains_linear_sugars>  (107) 
False

>  <murcko_framework>  (107) 
O1CC2CCCC13Cc4ccccc4CCC23

>  <np_likeness>  (107) 
2.15

>  <chemical_class>  (107) 
Organooxygen compounds

>  <chemical_sub_class>  (107) 
Carbonyl compounds

>  <chemical_super_class>  (107) 
Organic oxygen compounds

>  <direct_parent_classification>  (107) 
Aryl alkyl ketones

>  <np_classifier_pathway>  (107) 
Terpenoids

>  <np_classifier_superclass>  (107) 
Diterpenoids

>  <np_classifier_class>  (107) 
Icetexane diterpenoids

>  <np_classifier_is_glycoside>  (107) 
False

>  <organisms>  (107) 
Salvia ballotiflora

>  <collections>  (107) 
BIOFACQUIM|Latin America dataset

>  <dois>  (107) 
10.3390/molecules22101690

>  <synonyms>  (107) 
6 7 11 14-tetrahydro-7-oxo-icetexone

>  <cas>  (107) 
nan

$$$$

     RDKit          2D

 25 28  0  0  0  0  0  0  0  0999 V2000
   -4.9485    2.6028    0.0000 C   0  0  0  0  0  0  0  0  0  0  0  0
   -4.8884    1.1040    0.0000 C   0  0  0  0  0  0  0  0  0  0  0  0
   -6.1564    0.3026    0.0000 C   0  0  0  0  0  0  0  0  0  0  0  0
   -3.5604    0.4066    0.0000 C   0  0  0  0  0  0  0  0  0  0  0  0
   -3.5003   -1.0922    0.0000 C   0  0  0  0  0  0  0  0  0  0  0  0
   -4.7683   -1.8936    0.0000 O   0  0  0  0  0  0  0  0  0  0  0  0
   -2.1723   -1.7896    0.0000 C   0  0  0  0  0  0  0  0  0  0  0  0
   -2.1122   -3.2884    0.0000 O   0  0  0  0  0  0  0  0  0  0  0  0
   -0.9043   -0.9882    0.0000 C   0  0  0  0  0  0  0  0  0  0  0  0
    0.3049   -1.8757    0.0000 C   0  0  0  0  0  0  0  0  0  0  0  0
    1.7528   -1.4836    0.0000 C   0  0  0  0  0  0  0  0  0  0  0  0
    2.6467   -2.6882    0.0000 C   0  0  0  0  0  0  0  0  0  0  0  0
    4.1368   -2.5163    0.0000 C   0  0  0  0  0  0  0  0  0  0  0  0
    4.7330   -1.1398    0.0000 C   0  0  0  0  0  0  0  0  0  0  0  0
    3.8391    0.0647    0.0000 C   0  0  0  0  0  0  0  0  0  0  0  0
    4.7506    1.2559    0.0000 C   0  0  0  0  0  0  0  0  0  0  0  0
    4.0920    1.5432    0.0000 C   0  0  0  0  0  0  0  0  0  0  0  0
    5.4368    2.2077    0.0000 O   0  0  0  0  0  0  0  0  0  0  0  0
    2.7639    2.2406    0.0000 O   0  0  0  0  0  0  0  0  0  0  0  0
    1.6446    1.2171    0.0000 C   0  0  0  0  0  0  0  0  0  0  0  0
    0.1700    1.4921    0.0000 C   0  0  0  0  0  0  0  0  0  0  0  0
   -0.9644    0.5106    0.0000 C   0  0  0  0  0  0  0  0  0  0  0  0
   -2.2924    1.2080    0.0000 C   0  0  0  0  0  0  0  0  0  0  0  0
   -2.3525    2.7068    0.0000 O   0  0  0  0  0  0  0  0  0  0  0  0
    2.3490   -0.1072    0.0000 C   0  0  0  0  0  0  0  0  0  0  0  0
  1  2  1  0
  2  3  1  0
  2  4  1  0
  4  5  2  0
  5  6  1  0
  5  7  1  0
  7  8  2  0
  7  9  1  0
  9 10  2  0
 10 11  1  0
 11 12  2  0
 12 13  1  0
 13 14  1  0
 14 15  1  0
 15 16  1  6
 15 17  1  0
 17 18  2  0
 17 19  1  0
 20 19  1  6
 20 21  1  0
 21 22  2  0
 22 23  1  0
 23 24  2  0
 20 25  1  0
 23  4  1  0
 22  9  1  0
 25 11  1  1
 25 15  1  0
M  END
>  <identifier>  (108) 
CNP0326734.1

>  <canonical_smiles>  (108) 
CC(C)C1=C(O)C(=O)C2=CC3=CCC[C@]4(C)C(=O)O[C@@H](C=C2C1=O)[C@H]34

>  <standard_inchi>  (108) 
InChI=1S/C20H20O5/c1-9(2)14-16(21)12-8-13-15-10(7-11(12)17(22)18(14)23)5-4-6-20(15,3)19(24)25-13/h5,7-9,13,15,23H,4,6H2,1-3H3/t13-,15-,20-/m0/s1

>  <standard_inchi_key>  (108) 
MRFHAFKKJKWCOY-KPHUOKFYSA-N

>  <name>  (108) 
Anastomosine

>  <iupac_name>  (108) 
(10~{S},13~{S},17~{R})-5-hydroxy-6-isopropyl-13-methyl-11-oxatetracyclo[8.6.1.0^{3,8}.0^{13,17}]heptadeca-1(16),2,5,8-tetraene-4,7,12-trione

>  <annotation_level>  (108) 
5

>  <total_atom_count>  (108) 
45

>  <heavy_atom_count>  (108) 
25

>  <molecular_weight>  (108) 
340.38

>  <exact_molecular_weight>  (108) 
340.13107

>  <molecular_formula>  (108) 
C20H20O5

>  <alogp>  (108) 
2.74

>  <topological_polar_surface_area>  (108) 
80.67

>  <rotatable_bond_count>  (108) 
1

>  <hydrogen_bond_acceptors>  (108) 
5

>  <hydrogen_bond_donors>  (108) 
1

>  <hydrogen_bond_acceptors_lipinski>  (108) 
5

>  <hydrogen_bond_donors_lipinski>  (108) 
1

>  <lipinski_rule_of_five_violations>  (108) 
0

>  <aromatic_rings_count>  (108) 
0

>  <qed_drug_likeliness>  (108) 
0.74

>  <formal_charge>  (108) 
0

>  <fractioncsp3>  (108) 
0.45

>  <number_of_minimal_rings>  (108) 
4

>  <van_der_walls_volume>  (108) 
300.95

>  <contains_sugar>  (108) 
False

>  <contains_ring_sugars>  (108) 
False

>  <contains_linear_sugars>  (108) 
False

>  <murcko_framework>  (108) 
O1CC2CCC=C3C=C4C(=CC1C32)CC=CC4

>  <np_likeness>  (108) 
2.19

>  <chemical_class>  (108) 
Organooxygen compounds

>  <chemical_sub_class>  (108) 
Carbonyl compounds

>  <chemical_super_class>  (108) 
Organic oxygen compounds

>  <direct_parent_classification>  (108) 
Cyclohexenones

>  <np_classifier_pathway>  (108) 
Terpenoids

>  <np_classifier_superclass>  (108) 
Diterpenoids

>  <np_classifier_class>  (108) 
Icetexane diterpenoids

>  <np_classifier_is_glycoside>  (108) 
False

>  <organisms>  (108) 
Salvia ballotiflora

>  <collections>  (108) 
BIOFACQUIM|Latin America dataset|Super Natural II

>  <dois>  (108) 
10.3390/molecules22101690

>  <synonyms>  (108) 
Anastomosine

>  <cas>  (108) 
nan

$$$$

     RDKit          2D

 25 28  0  0  0  0  0  0  0  0999 V2000
   -6.1508   -0.3002    0.0000 C   0  0  0  0  0  0  0  0  0  0  0  0
   -4.8828   -1.1015    0.0000 C   0  0  0  0  0  0  0  0  0  0  0  0
   -4.9428   -2.6003    0.0000 C   0  0  0  0  0  0  0  0  0  0  0  0
   -3.5548   -0.4040    0.0000 C   0  0  0  0  0  0  0  0  0  0  0  0
   -3.4949    1.0948    0.0000 C   0  0  0  0  0  0  0  0  0  0  0  0
   -4.7629    1.8961    0.0000 O   0  0  0  0  0  0  0  0  0  0  0  0
   -2.1669    1.7923    0.0000 C   0  0  0  0  0  0  0  0  0  0  0  0
   -2.1070    3.2911    0.0000 O   0  0  0  0  0  0  0  0  0  0  0  0
   -0.8989    0.9910    0.0000 C   0  0  0  0  0  0  0  0  0  0  0  0
   -0.9588   -0.5078    0.0000 C   0  0  0  0  0  0  0  0  0  0  0  0
    0.1756   -1.4892    0.0000 C   0  0  0  0  0  0  0  0  0  0  0  0
    1.6502   -1.2141    0.0000 C   0  0  0  0  0  0  0  0  0  0  0  0
    2.7239   -2.2615    0.0000 O   0  0  0  0  0  0  0  0  0  0  0  0
    4.0518   -1.5640    0.0000 C   0  0  0  0  0  0  0  0  0  0  0  0
    5.3967   -2.2284    0.0000 O   0  0  0  0  0  0  0  0  0  0  0  0
    3.8446   -0.0615    0.0000 C   0  0  0  0  0  0  0  0  0  0  0  0
    4.7562   -1.2527    0.0000 C   0  0  0  0  0  0  0  0  0  0  0  0
    4.7384    1.1431    0.0000 C   0  0  0  0  0  0  0  0  0  0  0  0
    4.1421    2.5195    0.0000 C   0  0  0  0  0  0  0  0  0  0  0  0
    2.6520    2.6913    0.0000 C   0  0  0  0  0  0  0  0  0  0  0  0
    1.7582    1.4867    0.0000 C   0  0  0  0  0  0  0  0  0  0  0  0
    0.3103    1.8786    0.0000 C   0  0  0  0  0  0  0  0  0  0  0  0
    2.3545    0.1103    0.0000 C   0  0  0  0  0  0  0  0  0  0  0  0
   -2.2868   -1.2053    0.0000 C   0  0  0  0  0  0  0  0  0  0  0  0
   -2.3468   -2.7041    0.0000 O   0  0  0  0  0  0  0  0  0  0  0  0
  1  2  1  0
  2  3  1  0
  2  4  1  0
  4  5  2  0
  5  6  1  0
  5  7  1  0
  7  8  2  0
  7  9  1  0
  9 10  2  0
 10 11  1  0
 12 11  1  1
 12 13  1  0
 13 14  1  0
 14 15  2  0
 14 16  1  0
 16 17  1  1
 16 18  1  0
 18 19  1  0
 19 20  1  0
 20 21  2  0
 21 22  1  0
 23 21  1  6
 10 24  1  0
 24 25  2  0
 24  4  1  0
 22  9  1  0
 23 12  1  0
 23 16  1  0
M  END
>  <identifier>  (109) 
CNP0318442.1

>  <canonical_smiles>  (109) 
CC(C)C1=C(O)C(=O)C2=C(C[C@@H]3OC(=O)[C@@]4(C)CCC=C(C2)[C@@H]34)C1=O

>  <standard_inchi>  (109) 
InChI=1S/C20H22O5/c1-9(2)14-16(21)12-8-13-15-10(7-11(12)17(22)18(14)23)5-4-6-20(15,3)19(24)25-13/h5,9,13,15,23H,4,6-8H2,1-3H3/t13-,15-,20-/m0/s1

>  <standard_inchi_key>  (109) 
XXVSZSNOEWVDPA-KPHUOKFYSA-N

>  <name>  (109) 
7 20-dihydroanastomosine

>  <iupac_name>  (109) 
(10~{S},13~{S},17~{R})-5-hydroxy-6-isopropyl-13-methyl-11-oxatetracyclo[8.6.1.0^{3,8}.0^{13,17}]heptadeca-1(16),3(8),5-triene-4,7,12-trione

>  <annotation_level>  (109) 
5

>  <total_atom_count>  (109) 
47

>  <heavy_atom_count>  (109) 
25

>  <molecular_weight>  (109) 
342.39

>  <exact_molecular_weight>  (109) 
342.14672

>  <molecular_formula>  (109) 
C20H22O5

>  <alogp>  (109) 
2.96

>  <topological_polar_surface_area>  (109) 
80.67

>  <rotatable_bond_count>  (109) 
1

>  <hydrogen_bond_acceptors>  (109) 
5

>  <hydrogen_bond_donors>  (109) 
1

>  <hydrogen_bond_acceptors_lipinski>  (109) 
5

>  <hydrogen_bond_donors_lipinski>  (109) 
1

>  <lipinski_rule_of_five_violations>  (109) 
0

>  <aromatic_rings_count>  (109) 
0

>  <qed_drug_likeliness>  (109) 
0.45

>  <formal_charge>  (109) 
0

>  <fractioncsp3>  (109) 
0.55

>  <number_of_minimal_rings>  (109) 
4

>  <van_der_walls_volume>  (109) 
306.46

>  <contains_sugar>  (109) 
False

>  <contains_ring_sugars>  (109) 
False

>  <contains_linear_sugars>  (109) 
False

>  <murcko_framework>  (109) 
O1CC2CCC=C3CC4=C(CC=CC4)CC1C32

>  <np_likeness>  (109) 
2.29

>  <chemical_class>  (109) 
Lactones

>  <chemical_sub_class>  (109) 
Gamma butyrolactones

>  <chemical_super_class>  (109) 
Organoheterocyclic compounds

>  <direct_parent_classification>  (109) 
Gamma butyrolactones

>  <np_classifier_pathway>  (109) 
Terpenoids

>  <np_classifier_superclass>  (109) 
Diterpenoids

>  <np_classifier_class>  (109) 
Abietane diterpenoids

>  <np_classifier_is_glycoside>  (109) 
False

>  <organisms>  (109) 
Salvia ballotiflora

>  <collections>  (109) 
BIOFACQUIM|Latin America dataset|Super Natural II

>  <dois>  (109) 
10.3390/molecules22101690

>  <synonyms>  (109) 
7 20-dihydroanastomosine

>  <cas>  (109) 
nan

$$$$

     RDKit          2D

 27 29  0  0  0  0  0  0  0  0999 V2000
   -7.5772    1.2617    0.0000 C   0  0  0  0  0  0  0  0  0  0  0  0
   -6.5916    0.1309    0.0000 C   0  0  0  0  0  0  0  0  0  0  0  0
   -7.0781   -1.2880    0.0000 O   0  0  0  0  0  0  0  0  0  0  0  0
   -5.1196    0.4191    0.0000 O   0  0  0  0  0  0  0  0  0  0  0  0
   -4.1340   -0.7117    0.0000 C   0  0  0  0  0  0  0  0  0  0  0  0
   -2.6619   -0.4235    0.0000 C   0  0  0  0  0  0  0  0  0  0  0  0
   -2.6337   -1.9232    0.0000 C   0  0  0  0  0  0  0  0  0  0  0  0
   -3.2013    0.9762    0.0000 C   0  0  0  0  0  0  0  0  0  0  0  0
   -2.2589    2.1432    0.0000 C   0  0  0  0  0  0  0  0  0  0  0  0
   -0.7771    1.9105    0.0000 C   0  0  0  0  0  0  0  0  0  0  0  0
   -0.2377    0.5108    0.0000 C   0  0  0  0  0  0  0  0  0  0  0  0
    0.7048    1.6778    0.0000 C   0  0  0  0  0  0  0  0  0  0  0  0
    1.2442    0.2782    0.0000 C   0  0  0  0  0  0  0  0  0  0  0  0
    1.7836   -1.1215    0.0000 C   0  0  0  0  0  0  0  0  0  0  0  0
    3.2655   -1.3542    0.0000 C   0  0  0  0  0  0  0  0  0  0  0  0
    4.2079   -0.1872    0.0000 C   0  0  0  0  0  0  0  0  0  0  0  0
    5.6897   -0.4199    0.0000 C   0  0  0  0  0  0  0  0  0  0  0  0
    6.2291   -1.8195    0.0000 C   0  0  0  0  0  0  0  0  0  0  0  0
    6.6321    0.7471    0.0000 C   0  0  0  0  0  0  0  0  0  0  0  0
    3.6685    1.2125    0.0000 C   0  0  0  0  0  0  0  0  0  0  0  0
    4.6109    2.3794    0.0000 O   0  0  0  0  0  0  0  0  0  0  0  0
    2.1866    1.4451    0.0000 C   0  0  0  0  0  0  0  0  0  0  0  0
    1.6472    2.8448    0.0000 O   0  0  0  0  0  0  0  0  0  0  0  0
    0.8412   -2.2885    0.0000 C   0  0  0  0  0  0  0  0  0  0  0  0
    1.3806   -3.6881    0.0000 O   0  0  0  0  0  0  0  0  0  0  0  0
   -0.6407   -2.0558    0.0000 C   0  0  0  0  0  0  0  0  0  0  0  0
   -1.1801   -0.6561    0.0000 C   0  0  0  0  0  0  0  0  0  0  0  0
  1  2  1  0
  2  3  2  0
  2  4  1  0
  4  5  1  0
  5  6  1  0
  6  7  1  1
  6  8  1  0
  8  9  1  0
  9 10  1  0
 10 11  1  0
 11 12  1  1
 11 13  1  0
 13 14  2  0
 14 15  1  0
 15 16  2  0
 16 17  1  0
 17 18  1  0
 17 19  1  0
 16 20  1  0
 20 21  1  0
 20 22  2  0
 22 23  1  0
 14 24  1  0
 24 25  2  0
 24 26  1  0
 27 26  1  1
 27  6  1  0
 27 11  1  0
 22 13  1  0
M  END
>  <identifier>  (110) 
CNP0080278.1

>  <canonical_smiles>  (110) 
CC(=O)OC[C@]1(C)CCC[C@]2(C)C3=C(C=C(C(C)C)C(O)=C3O)C(=O)C[C@@H]12

>  <standard_inchi>  (110) 
InChI=1S/C22H30O5/c1-12(2)14-9-15-16(24)10-17-21(4,11-27-13(3)23)7-6-8-22(17,5)18(15)20(26)19(14)25/h9,12,17,25-26H,6-8,10-11H2,1-5H3/t17-,21-,22-/m0/s1

>  <standard_inchi_key>  (110) 
MWKQZQOBWYIJHX-HSQYWUDLSA-N

>  <name>  (110) 
nan

>  <iupac_name>  (110) 
[(1~{R},4~{a}~{S},10~{a}~{R})-5,6-dihydroxy-7-isopropyl-1,4~{a}-dimethyl-9-oxo-3,4,10,10~{a}-tetrahydro-2~{H}-phenanthren-1-yl]methyl acetate

>  <annotation_level>  (110) 
5

>  <total_atom_count>  (110) 
57

>  <heavy_atom_count>  (110) 
27

>  <molecular_weight>  (110) 
374.48

>  <exact_molecular_weight>  (110) 
374.20932

>  <molecular_formula>  (110) 
C22H30O5

>  <alogp>  (110) 
4.43

>  <topological_polar_surface_area>  (110) 
83.83

>  <rotatable_bond_count>  (110) 
3

>  <hydrogen_bond_acceptors>  (110) 
5

>  <hydrogen_bond_donors>  (110) 
2

>  <hydrogen_bond_acceptors_lipinski>  (110) 
5

>  <hydrogen_bond_donors_lipinski>  (110) 
2

>  <lipinski_rule_of_five_violations>  (110) 
0

>  <aromatic_rings_count>  (110) 
1

>  <qed_drug_likeliness>  (110) 
0.60

>  <formal_charge>  (110) 
0

>  <fractioncsp3>  (110) 
0.64

>  <number_of_minimal_rings>  (110) 
3

>  <van_der_walls_volume>  (110) 
353.14

>  <contains_sugar>  (110) 
False

>  <contains_ring_sugars>  (110) 
False

>  <contains_linear_sugars>  (110) 
False

>  <murcko_framework>  (110) 
c1ccc2c(c1)CCC3CCCCC23

>  <np_likeness>  (110) 
2.39

>  <chemical_class>  (110) 
Prenol lipids

>  <chemical_sub_class>  (110) 
Diterpenoids

>  <chemical_super_class>  (110) 
Lipids and lipid-like molecules

>  <direct_parent_classification>  (110) 
Diterpenoids

>  <np_classifier_pathway>  (110) 
Terpenoids

>  <np_classifier_superclass>  (110) 
Diterpenoids

>  <np_classifier_class>  (110) 
Abietane diterpenoids

>  <np_classifier_is_glycoside>  (110) 
False

>  <organisms>  (110) 
Salvia ballotiflora

>  <collections>  (110) 
BIOFACQUIM|Latin America dataset

>  <dois>  (110) 
10.3390/molecules22101690

>  <synonyms>  (110) 
18-acetoxy-11-hydroxysugiol

>  <cas>  (110) 
nan

$$$$

     RDKit          2D

 25 28  0  0  0  0  0  0  0  0999 V2000
   -4.9137    2.3058    0.0000 C   0  0  0  0  0  0  0  0  0  0  0  0
   -4.7316    0.8169    0.0000 C   0  0  0  0  0  0  0  0  0  0  0  0
   -5.9300   -0.0852    0.0000 C   0  0  0  0  0  0  0  0  0  0  0  0
   -3.3512    0.2301    0.0000 C   0  0  0  0  0  0  0  0  0  0  0  0
   -3.1691   -1.2588    0.0000 C   0  0  0  0  0  0  0  0  0  0  0  0
   -4.3675   -2.1609    0.0000 O   0  0  0  0  0  0  0  0  0  0  0  0
   -1.7887   -1.8456    0.0000 C   0  0  0  0  0  0  0  0  0  0  0  0
   -1.6066   -3.3345    0.0000 O   0  0  0  0  0  0  0  0  0  0  0  0
   -0.5903   -0.9435    0.0000 C   0  0  0  0  0  0  0  0  0  0  0  0
   -0.7723    0.5454    0.0000 C   0  0  0  0  0  0  0  0  0  0  0  0
    0.2783    1.6161    0.0000 C   0  0  0  0  0  0  0  0  0  0  0  0
    1.7704    1.4622    0.0000 C   0  0  0  0  0  0  0  0  0  0  0  0
    2.5804    0.1998    0.0000 C   0  0  0  0  0  0  0  0  0  0  0  0
    2.0984   -1.2207    0.0000 C   0  0  0  0  0  0  0  0  0  0  0  0
    3.0875   -2.3483    0.0000 C   0  0  0  0  0  0  0  0  0  0  0  0
    4.5587   -2.0555    0.0000 C   0  0  0  0  0  0  0  0  0  0  0  0
    5.0407   -0.6351    0.0000 C   0  0  0  0  0  0  0  0  0  0  0  0
    4.0515    0.4926    0.0000 C   0  0  0  0  0  0  0  0  0  0  0  0
    4.5335    1.9130    0.0000 C   0  0  0  0  0  0  0  0  0  0  0  0
    2.7623    1.2594    0.0000 C   0  0  0  0  0  0  0  0  0  0  0  0
    2.6249    2.7530    0.0000 O   0  0  0  0  0  0  0  0  0  0  0  0
    1.6347    0.2702    0.0000 O   0  0  0  0  0  0  0  0  0  0  0  0
    0.6873   -1.7295    0.0000 C   0  0  0  0  0  0  0  0  0  0  0  0
   -2.1528    1.1322    0.0000 C   0  0  0  0  0  0  0  0  0  0  0  0
   -2.3348    2.6211    0.0000 O   0  0  0  0  0  0  0  0  0  0  0  0
  1  2  1  0
  2  3  1  0
  2  4  1  0
  4  5  2  0
  5  6  1  0
  5  7  1  0
  7  8  2  0
  7  9  1  0
  9 10  2  0
 10 11  1  0
 11 12  2  0
 13 12  1  1
 13 14  1  0
 14 15  1  1
 15 16  1  0
 16 17  1  0
 17 18  1  0
 18 19  1  6
 18 20  1  0
 20 21  2  0
 20 22  1  0
 14 23  1  0
 10 24  1  0
 24 25  2  0
 24  4  1  0
 23  9  1  0
 18 13  1  0
 22 14  1  0
M  END
>  <identifier>  (111) 
CNP0152262.1

>  <canonical_smiles>  (111) 
CC(C)C1=C(O)C(=O)C2=C(C=C[C@@H]3[C@]4(CCC[C@]3(C)C(=O)O4)C2)C1=O

>  <standard_inchi>  (111) 
InChI=1S/C20H22O5/c1-10(2)14-15(21)11-5-6-13-19(3)7-4-8-20(13,25-18(19)24)9-12(11)16(22)17(14)23/h5-6,10,13,23H,4,7-9H2,1-3H3/t13-,19-,20-/m0/s1

>  <standard_inchi_key>  (111) 
NFLLWTNAXDSKKC-MRFFXTKBSA-N

>  <name>  (111) 
Icetexone

>  <iupac_name>  (111) 
(1~{S},11~{S},12~{S})-5-hydroxy-6-isopropyl-12-methyl-16-oxatetracyclo[10.3.2.0^{1,11}.0^{3,8}]heptadeca-3(8),5,9-triene-4,7,17-trione

>  <annotation_level>  (111) 
5

>  <total_atom_count>  (111) 
47

>  <heavy_atom_count>  (111) 
25

>  <molecular_weight>  (111) 
342.39

>  <exact_molecular_weight>  (111) 
342.14672

>  <molecular_formula>  (111) 
C20H22O5

>  <alogp>  (111) 
2.96

>  <topological_polar_surface_area>  (111) 
80.67

>  <rotatable_bond_count>  (111) 
1

>  <hydrogen_bond_acceptors>  (111) 
5

>  <hydrogen_bond_donors>  (111) 
1

>  <hydrogen_bond_acceptors_lipinski>  (111) 
5

>  <hydrogen_bond_donors_lipinski>  (111) 
1

>  <lipinski_rule_of_five_violations>  (111) 
0

>  <aromatic_rings_count>  (111) 
0

>  <qed_drug_likeliness>  (111) 
0.59

>  <formal_charge>  (111) 
0

>  <fractioncsp3>  (111) 
0.55

>  <number_of_minimal_rings>  (111) 
4

>  <van_der_walls_volume>  (111) 
305.25

>  <contains_sugar>  (111) 
False

>  <contains_ring_sugars>  (111) 
False

>  <contains_linear_sugars>  (111) 
False

>  <murcko_framework>  (111) 
O1CC2CCCC13CC4=C(C=CC23)CC=CC4

>  <np_likeness>  (111) 
2.63

>  <chemical_class>  (111) 
Lactones

>  <chemical_sub_class>  (111) 
Gamma butyrolactones

>  <chemical_super_class>  (111) 
Organoheterocyclic compounds

>  <direct_parent_classification>  (111) 
Gamma butyrolactones

>  <np_classifier_pathway>  (111) 
Terpenoids

>  <np_classifier_superclass>  (111) 
Diterpenoids

>  <np_classifier_class>  (111) 
Icetexane diterpenoids

>  <np_classifier_is_glycoside>  (111) 
False

>  <organisms>  (111) 
Salvia ballotiflora

>  <collections>  (111) 
BIOFACQUIM|Latin America dataset|Super Natural II

>  <dois>  (111) 
10.3390/molecules22101690

>  <synonyms>  (111) 
Icetexone

>  <cas>  (111) 
nan

$$$$

     RDKit          2D

 31 34  0  0  0  0  0  0  0  0999 V2000
   -1.9471   -3.7128    0.0000 O   0  0  0  0  0  0  0  0  0  0  0  0
   -2.2236   -2.2385    0.0000 C   0  0  0  0  0  0  0  0  0  0  0  0
   -3.6386   -1.7408    0.0000 C   0  0  0  0  0  0  0  0  0  0  0  0
   -3.9151   -0.2665    0.0000 C   0  0  0  0  0  0  0  0  0  0  0  0
   -5.3301    0.2312    0.0000 C   0  0  0  0  0  0  0  0  0  0  0  0
   -5.6066    1.7055    0.0000 C   0  0  0  0  0  0  0  0  0  0  0  0
   -7.0216    2.2032    0.0000 C   0  0  0  0  0  0  0  0  0  0  0  0
   -8.1601    1.2266    0.0000 C   0  0  0  0  0  0  0  0  0  0  0  0
   -9.5751    1.7244    0.0000 O   0  0  0  0  0  0  0  0  0  0  0  0
   -7.8837   -0.2477    0.0000 C   0  0  0  0  0  0  0  0  0  0  0  0
   -6.4686   -0.7454    0.0000 C   0  0  0  0  0  0  0  0  0  0  0  0
   -2.7765    0.7101    0.0000 O   0  0  0  0  0  0  0  0  0  0  0  0
   -1.3615    0.2124    0.0000 C   0  0  0  0  0  0  0  0  0  0  0  0
   -0.2230    1.1890    0.0000 C   0  0  0  0  0  0  0  0  0  0  0  0
    1.1921    0.6912    0.0000 C   0  0  0  0  0  0  0  0  0  0  0  0
    2.3306    1.6678    0.0000 O   0  0  0  0  0  0  0  0  0  0  0  0
    3.7456    1.1701    0.0000 C   0  0  0  0  0  0  0  0  0  0  0  0
    4.0221   -0.3042    0.0000 O   0  0  0  0  0  0  0  0  0  0  0  0
    5.4371   -0.8019    0.0000 C   0  0  0  0  0  0  0  0  0  0  0  0
    5.7136   -2.2762    0.0000 C   0  0  0  0  0  0  0  0  0  0  0  0
    4.5750   -3.2528    0.0000 O   0  0  0  0  0  0  0  0  0  0  0  0
    6.5757    0.1747    0.0000 C   0  0  0  0  0  0  0  0  0  0  0  0
    7.9907   -0.3230    0.0000 O   0  0  0  0  0  0  0  0  0  0  0  0
    6.2992    1.6490    0.0000 C   0  0  0  0  0  0  0  0  0  0  0  0
    7.4377    2.6256    0.0000 O   0  0  0  0  0  0  0  0  0  0  0  0
    4.8842    2.1467    0.0000 C   0  0  0  0  0  0  0  0  0  0  0  0
    4.6077    3.6210    0.0000 O   0  0  0  0  0  0  0  0  0  0  0  0
    1.4685   -0.7831    0.0000 C   0  0  0  0  0  0  0  0  0  0  0  0
    0.3300   -1.7596    0.0000 C   0  0  0  0  0  0  0  0  0  0  0  0
    0.6065   -3.2339    0.0000 O   0  0  0  0  0  0  0  0  0  0  0  0
   -1.0850   -1.2619    0.0000 C   0  0  0  0  0  0  0  0  0  0  0  0
  1  2  2  0
  2  3  1  0
  3  4  2  0
  4  5  1  0
  5  6  2  0
  6  7  1  0
  7  8  2  0
  8  9  1  0
  8 10  1  0
 10 11  2  0
  4 12  1  0
 12 13  1  0
 13 14  2  0
 14 15  1  0
 15 16  1  0
 17 16  1  1
 17 18  1  0
 18 19  1  0
 19 20  1  1
 20 21  1  0
 19 22  1  0
 22 23  1  6
 22 24  1  0
 24 25  1  1
 24 26  1  0
 26 27  1  6
 15 28  2  0
 28 29  1  0
 29 30  1  0
 29 31  2  0
 31  2  1  0
 11  5  1  0
 31 13  1  0
 26 17  1  0
M  END
>  <identifier>  (112) 
CNP0103424.1

>  <canonical_smiles>  (112) 
O=C1C=C(C2=CC=C(O)C=C2)OC2=CC(O[C@@H]3O[C@H](CO)[C@@H](O)[C@H](O)[C@H]3O)=CC(O)=C12

>  <standard_inchi>  (112) 
InChI=1S/C21H20O10/c22-8-16-18(26)19(27)20(28)21(31-16)29-11-5-12(24)17-13(25)7-14(30-15(17)6-11)9-1-3-10(23)4-2-9/h1-7,16,18-24,26-28H,8H2/t16-,18-,19+,20-,21-/m1/s1

>  <standard_inchi_key>  (112) 
KMOUJOKENFFTPU-QNDFHXLGSA-N

>  <name>  (112) 
578-74-5

>  <iupac_name>  (112) 
5-hydroxy-2-(4-hydroxyphenyl)-7-[(2~{S},3~{R},4~{S},5~{S},6~{R})-3,4,5-trihydroxy-6-(hydroxymethyl)tetrahydropyran-2-yl]oxy-chromen-4-one

>  <annotation_level>  (112) 
5

>  <total_atom_count>  (112) 
51

>  <heavy_atom_count>  (112) 
31

>  <molecular_weight>  (112) 
432.38

>  <exact_molecular_weight>  (112) 
432.10565

>  <molecular_formula>  (112) 
C21H20O10

>  <alogp>  (112) 
0.05

>  <topological_polar_surface_area>  (112) 
170.05

>  <rotatable_bond_count>  (112) 
4

>  <hydrogen_bond_acceptors>  (112) 
10

>  <hydrogen_bond_donors>  (112) 
6

>  <hydrogen_bond_acceptors_lipinski>  (112) 
10

>  <hydrogen_bond_donors_lipinski>  (112) 
6

>  <lipinski_rule_of_five_violations>  (112) 
1

>  <aromatic_rings_count>  (112) 
3

>  <qed_drug_likeliness>  (112) 
0.33

>  <formal_charge>  (112) 
0

>  <fractioncsp3>  (112) 
0.29

>  <number_of_minimal_rings>  (112) 
4

>  <van_der_walls_volume>  (112) 
353.43

>  <contains_sugar>  (112) 
True

>  <contains_ring_sugars>  (112) 
True

>  <contains_linear_sugars>  (112) 
False

>  <murcko_framework>  (112) 
O1c2cc(OC3OCCCC3)ccc2CC=C1c4ccccc4

>  <np_likeness>  (112) 
1.93

>  <chemical_class>  (112) 
Flavonoids

>  <chemical_sub_class>  (112) 
Flavonoid glycosides

>  <chemical_super_class>  (112) 
Phenylpropanoids and polyketides

>  <direct_parent_classification>  (112) 
Flavonoid-7-O-glycosides

>  <np_classifier_pathway>  (112) 
Shikimates and Phenylpropanoids

>  <np_classifier_superclass>  (112) 
Flavonoids

>  <np_classifier_class>  (112) 
Flavones

>  <np_classifier_is_glycoside>  (112) 
True

>  <organisms>  (112) 
Abies veitchii|Achillea atrata L.ssp.multifida|Achillea atrata subsp. multifida|Achillea collina|Aconitum leucostomum|Acroptilon repens|Actinobacillus pleuropneumoniae|Afrocarpus gracilior|Agastache rugosa|Agave xylonacantha|Ainsliaea macrocephala|Amoora yunnanensis|Amphimedon terpenensis|Amyris texana|Anarsia lineatella|Annona rensoniana|Anthemis cretica|Anthemis pseudocotula|Antiphiona pinnatisecta|Aphis sambuci|Apollonias barbujana|Aquilegia ecalcarata|Arachniodes dimorphophylla|Aristolochia maxima|Artemisia hanseniana|Artemisia vachanica|Ascocoryne sarcoides|Aspergillus albus|Asphodeline globifera|Astilbe odontophylla|Astragalus monspessulanus|Asystasia gangetica|Asystasia gangetica L.|Atroxima liberica|Baccharis thesioides|Ballota foetida|Barbarea vulgaris subsp. arcuata|Bellis perennis|Bergenia crassifolia|Bergenia purpurascens|Betula mandshurica|Biebersteinia orphanidis|Bischofia trifoliata|Blumea mollis|Bombax malabaricum|Bonnetia dinizii|Boronia ternata|Botryosphaeria berengeriana|Buddleja officinalis|Bunias orientalis|Buxus hyrcana|Buxus microphylla|Cadia purpurea|Calophyllum inophyllum|Capparis Flavicans|Caragana tibetica|Casearia membranacea|Cassytha racemosa|Ceanothus velutinus|Cephalaria ambrosioides|Chamomilla recutita (L.) Rauschert|Chlorophytum borivilianum|Christisonia bicolor|Chrysanthemum indicum|Chrysanthemum morifolium|Chrysanthemum viscidehirtum|Chrysanthemum x morifolium|Chrysolina fastuosa|Cichorium glandulosum|Cichorium intybus|Cinnamomum kotoense|Clerodendrum inerme|Cnidium officinale|Cochlospermum gillivraei|Codonopsis clematidea|Colchicum robustum|Colletotrichum lagenaria|Conocephalum conicum|Conospermum teretifolium|Convallaria majalis|Cosmos bipinnatus|Cotoneaster orbicularis|Crataegus sinaica|Crocus chrysanthus-biflorus|Crotalaria orixensis|Cryptocarya triplinervis|Cryptotaenia japonica|Cynara scolymus|Cytisus ratisbonensis|Daphne genkwa|Dendroaspis angusticeps|Dicoma anomala|Dipterocarpus dyeri|Discaria crenata|Dolichospermum affine|Dracocephalum tanguticum|Drynaria fortunei|Echinops galalensis|Elsholtzia bodinieri|Elsholtzia ciliata|Enicosanthum cupulare|Enrichment culture|Epidendrum rigidum|Escherichia coli + Escherichia coli coculture|Euphorbia ferganensis|Euphorbia humifusa|Euphorbia officinarum subsp. echinus|Euphorbia prostrata|Fragaria vesca|Gaillardia aristata|Galeopsis tetrahit|Ganoderma australe|Garcinia quaesita|Garcinia scortechinii|Gardenia jasminoides|Gardenia tubifera|Gastrophysa cyanea|Gentiana loureirii|Ginkgo biloba|Glechoma grandis|Glechoma longituba|Globularia davisiana|Glycosmis ovoidea|Hebe parviflora|Helichrysum graveolen|Helicoverpa armigera|Heterochordaria abietina|Hornschuchia citriodora|Hydnocarpus venenata|Hypericum perforatum|Ipomoea cairica|Isodon lophanthoides|Isodon rubescens|Jasminum officinale|Julocroton camporum|Kniphofia pumila|Kopsia grandifolia|Lasianthus fordii|Lasiocephalus ovatus|Laurencia decumbens|Lawsonia inermis|Lecanicillium muscarium|Ledebouria floribunda|Ledebouria socialis|Lens culinaris|Leptactina senegambica|Leuconostoc mesenteroides|Leucophyllum ambiguum|Licaria brasiliensis|Ligularia platyglossa|Ligusticum sinense|Ligustrum robustum|Linum crispum|Lippia graveolens|Lobelia chinensis|Lonicera japonica|Luculia pinceana|Lupinus albus L.|Lycopodium casuarinoides|Lycopodium japonicum|Lycopus europaeus|Lycopus lucidus|Maackia tashiroi|Machaerium nictitans|Macleaya cordata|Macrotyloma axillare|Malus asiatica|Marrubium vulgare|Matricaria chamomilla|Mentha arvensis|Mentha canadensis|Merendera sobolifera|Mikania obtusata|Mola mola|Montrouziera sphaeroidea|Morinda morindoides|Mosla chinensis|Mycale cecilia|Myrtopsis novae-caledoniae|Nepeta cataria|Nephroma antarcticum|Ocimum sanctum|Octopus vulgaris|Olea europaea|Onopordum alexandrinum|Onosma hispida|Oreosolen wattii|Pachychalina alcaloidifera|Pachyrhizus tuberosus|Paeonia lactiflora|Palafoxia texana|Pallenis spinosa|Panax innovans|Passiflora foetida var. hispida|Penicillium cinerascens|Penicillium stipitatum|Pentapora fascialis|Perilla frutescens|Perknaster fuscus|Persea mexicana|Petroselinum crispum|Phalium undulatum|Phlomis nissolii|Phlomoides rotata|Phomopsis archeri|Phyllospongia madagascarensis|Physocarpus capitatus|Picea neoveitchii|Pimpinella saxifraga|Pinus mugo|Pithecellobium clypearia|Pityrogramma ebenea|Plantago lanceolata|Platytaenia lasiocarpa|Podocarpus macrophyllus|Polygala myrtifolia|Polygonum cuspidatum|Preussia aemulans|Prostanthera melissifolia|Pseudocinchona pachyceras|Pseudocyclosorus subochthodes|Psorothamnus spinosus|Pteris multifida|Pyxine coccifera|Rabdosia angustifolia|Rapanea myricoides|Raukaua simplex|Retama raetam|Rhodiola krylovii|Rhodiola rosea|Rhodobacter sphaeroides|Riella affinis|Riella americana|Roccella fucoides|Rosa rugosa|Salix viminalis L.|Salvia aegypteacae|Salvia aegyptiaca|Salvia albimaculata|Salvia calycina|Salvia circinata|Salvia horminum|Salvia lanigera|Salvia lavandulaefolia|Salvia limbata|Salvia officinalis|Salvia palaestina|Salvia pinnata|Salvia pratensis|Salvia spinosa|Salvia triloba|Sambucus nigra|Sanchezia nobilis|Sanguisorba officinalis|Santolina chamaecyperissus|Sarcomelicope argyrophylla|Saussurea involucrata|Saussurea medusa|Scutellaria barbata|Scutellaria sieberi|Sedum sarmentosum|Senegalia tenuifolia|Smilax bracteata|Solanum bahamense|Sonchus oleraceus|Sophora tetraptera|Sordaria araneosa|Sphaeria maculans|Spirodela polyrhiza|Stachys germanica L.|Stachys lanata|Stachys plumosa Griseb.|Streptomyces bobili|Streptomyces purpeofuscus|Strombus gigas|Strophioblachia fimbricalyx|Strophioblachia fimbricalyx Boerl|Strychnos camptoneura|Teclea nobilis|Tenebrio obscurus|Thalictrum minus var. hypoleucum|Theobroma cacao|Theobroma cacao L.|Thermotoga maritima|Thymus quinquecostatus|Thymus vulgaris|Tinospora crispa|Tinospora smilacina|Tinus mamillata|Torenia fournieri|Trachelospermum asiaticum|Trachelospermum asiaticum var.intermedium|Trichosanthes kirilowii|Trichosanthes rosthornii|Tridacna gigas|Trigonostemon reidioides|Triticum estivum|Tropaeolum speciosum|Tropiometra afra|Turnera diffusa|Tynanthus panurensis|Uvaria chamae|Vatica diospyroides|Vellozia nivea|Veratrum grandiflorum|Verbena officinalis|Veronica chamaedrys|Vitex agnus-castus|Vitex negundo|Wallago attu|Xenia blumi|Zanthoxylum ailanthoides|Zinnia elegans

>  <collections>  (112) 
ANPDB|AnalytiCon Discovery NPs|Australian natural products|BIOFACQUIM|CMAUP (cCollective molecular activities of useful plants)|ChEBI NPs|ETM (Ethiopian Traditional Medicine) DB|FooDB|KNApSaCK|Latin America dataset|NANPDB (Natural Products from Northern African Sources)|NPACT|NPASS|NPEdia|Phenol-explorer|Phyto4Health|Super Natural II|TCMDB-Taiwan (Traditional Chinese Medicine database)|TIPdb (database of Taiwan indigenous plants)|VietHerb|ZINC NP

>  <dois>  (112) 
10.1007/s10600-014-1092-8|10.1016/0031-9422(73)85021-6|10.1016/0031-9422(75)80380-3|10.1016/0305-1978(92)90038-F|10.1016/S0031-9422(82)85085-1|10.1016/S0305-1978(99)00114-3|10.1016/S0367-326X(00)00147-7|10.1016/j.bmc.2009.08.036|10.1016/j.bmc.2015.04.053|10.1016/j.bmcl.2012.07.089|10.1016/j.phytol.2012.10.012|10.1021/acs.jnatprod.0c00756|10.1021/acs.jnatprod.7b00155|10.1021/np50019a012|10.1021/np9006298|10.1021/np980536m|10.1080/10286020.2013.861821|10.1080/14786419.2010.518146|10.1080/14786419.2011.606219|10.21608/zjps.1996.185015|10.3839/jabc.2008.010

>  <synonyms>  (112) 
Apigetrin|COSMOSIIN|Apigenin 7-glucoside|Cosmosiine|Cosmosioside|APIGENIN-7-GLUCOSIDE|Apigenin 7-O-beta-D-glucoside|Cosmetin|Cosmoside|UNII-7OF2S66PCH|7OF2S66PCH|NSC-407303|7-O-(beta-D-Glucosyl)apigenin|CHEBI:16778|Apigenin| 7-beta-D-glucopyranoside|EINECS 209-430-5|7-O-beta-D-Glucosyl-5|7|4'-trihydroxyflavone|5-Hydroxy-2-(4-hydroxyphenyl)-7-(((2S|3R|4S|5S|6R)-3|4|5-trihydroxy-6-(hydroxymethyl)tetrahydro-2H-pyran-2-yl)oxy)-4H-chromen-4-one|7-(beta-D-Glucopyranosyloxy)-5-hydroxy-2-(4-hydroxyphenyl)-4H-1-benzopyran-4-one|5-hydroxy-2-(4-hydroxyphenyl)-7-(2S|3R|4S|5S|6R)-3|4|5-trihydroxy-6-(hydroxymethyl)oxan-2-yloxychromen-4-one|4'|5|7-TRIHYDROXYFLAVONE 7-GLUCOSIDE|5-hydroxy-2-(4-hydroxyphenyl)-4-oxo-4H-chromen-7-yl beta-D-glucopyranoside|APIGENIN-7-GLUCOSIDE (USP-RS)|4H-1-Benzopyran-4-one| 7-(beta-D-glucopyranosyloxy)-5-hydroxy-2-(4-hydroxyphenyl)-|Cosmociin|MFCD00016787|Apigenin-7-O-|A-D-glucopyranoside|Spectrum_000176|SpecPlus_000927|APIGETRIN MI|Spectrum2_001752|Spectrum3_001249|Spectrum4_001741|Spectrum5_000562|4-ethynyl-1|1-biphenyl|BSPBio_002758|KBioGR_002182|KBioSS_000656|SPECTRUM211950|DivK1c_007023|SCHEMBL146404|SPBio_001884|A-D-glucoside|CHEMBL487017|MEGxp0_001431|KBio1_001967|KBio2_000656|KBio2_003224|KBio2_005792|KBio3_002258|APIGENIN 7-O-?-GLUCOSIDE|KMOUJOKENFFTPU-QNDFHXLGSA-N|7-O-beta-D-Glucopyranosylapigenin|DTXSID401028774|HMS1923E03|Apigetrin(Apigenin-7-O-glucoside)|HY-N0578|BDBM50378582|CCG-38803|s9125|AKOS025117305|CS-5931|NCGC00178486-01|Apigenin 7-glucoside| analytical standard|AS-75174|NS00079827|4'|5|7-Trihydroxyflavone 7-beta-D-glucoside|C04608|A831652|Q2858304|BRD-K13642330-001-01-8|APIGENIN 7-O-GLUCOSIDE (CONSTITUENT OF CHAMOMILE)|Apigenin 7-glucoside| primary pharmaceutical reference standard|Apigenin 7-glucoside| EuropePharmacopoeia (EP) Reference Standard|Apigenin-7-O-glucoside 1000 microg\/mL in Acetone:Dimethyl sulfoxide|Apigenin 7-glucoside| United States Pharmacopeia (USP) Reference Standard|7-(.BETA.-D-GLUCOPYRANOSYLOXY)-5-HYDROXY-2-(4-HYDROXYPHENYL)-4H-1-BENZOPYRAN-4-ONE|4H-1-Benzopyran-4-one| 7-(.beta.-D-glucopyranosyloxy)-5-hydroxy-2-(4-hydroxyphenyl)-| Apigenin 7-O-glucoside|5-hydroxy-2-(4-hydroxyphenyl)-7-(2S|3R|4S|5R|6R)-3|4|5-trihydroxy-6-(hydroxymethyl)tetrahydropyran-2-yloxy-chromen-4-one;Apigenin 7-Glucoside|Apiumetrin|tricin 7-O-beta-D-glucoside|apigenin-7-O-beta-D-glucopyranoside|cosmosiin|cosmetin|apigenin-7-O-glucoside|apigenin 7-O-_-D-glucopyranoside|apigenin 7-_-D-glucoside|apigetrin

>  <cas>  (112) 
nan

$$$$

     RDKit          2D

 26 29  0  0  0  0  0  0  0  0999 V2000
   -6.1430   -0.1702    0.0000 C   0  0  0  0  0  0  0  0  0  0  0  0
   -4.8772   -0.9750    0.0000 C   0  0  0  0  0  0  0  0  0  0  0  0
   -4.9413   -2.4736    0.0000 C   0  0  0  0  0  0  0  0  0  0  0  0
   -3.5473   -0.2812    0.0000 C   0  0  0  0  0  0  0  0  0  0  0  0
   -3.4832    1.2174    0.0000 C   0  0  0  0  0  0  0  0  0  0  0  0
   -4.7490    2.0223    0.0000 O   0  0  0  0  0  0  0  0  0  0  0  0
   -2.1533    1.9112    0.0000 C   0  0  0  0  0  0  0  0  0  0  0  0
   -2.0892    3.4099    0.0000 O   0  0  0  0  0  0  0  0  0  0  0  0
   -0.8875    1.1064    0.0000 C   0  0  0  0  0  0  0  0  0  0  0  0
   -0.9516   -0.3922    0.0000 C   0  0  0  0  0  0  0  0  0  0  0  0
   -2.2815   -1.0860    0.0000 C   0  0  0  0  0  0  0  0  0  0  0  0
   -2.3456   -2.5846    0.0000 O   0  0  0  0  0  0  0  0  0  0  0  0
    0.1801   -1.3767    0.0000 C   0  0  0  0  0  0  0  0  0  0  0  0
   -0.2159   -2.8235    0.0000 O   0  0  0  0  0  0  0  0  0  0  0  0
    1.6554   -1.1057    0.0000 C   0  0  0  0  0  0  0  0  0  0  0  0
    2.7262   -2.1561    0.0000 O   0  0  0  0  0  0  0  0  0  0  0  0
    4.0561   -1.4623    0.0000 C   0  0  0  0  0  0  0  0  0  0  0  0
    5.3991   -2.1304    0.0000 O   0  0  0  0  0  0  0  0  0  0  0  0
    3.8530    0.0408    0.0000 C   0  0  0  0  0  0  0  0  0  0  0  0
    4.7614   -1.1529    0.0000 C   0  0  0  0  0  0  0  0  0  0  0  0
    4.7502    1.2429    0.0000 C   0  0  0  0  0  0  0  0  0  0  0  0
    4.1577    2.6209    0.0000 C   0  0  0  0  0  0  0  0  0  0  0  0
    2.6681    2.7968    0.0000 C   0  0  0  0  0  0  0  0  0  0  0  0
    1.7709    1.5947    0.0000 C   0  0  0  0  0  0  0  0  0  0  0  0
    0.3241    1.9907    0.0000 C   0  0  0  0  0  0  0  0  0  0  0  0
    2.3634    0.2167    0.0000 C   0  0  0  0  0  0  0  0  0  0  0  0
  1  2  1  0
  2  3  1  0
  2  4  1  0
  4  5  2  0
  5  6  1  0
  5  7  1  0
  7  8  2  0
  7  9  1  0
  9 10  2  0
 10 11  1  0
 11 12  2  0
 10 13  1  0
 13 14  1  1
 13 15  1  0
 15 16  1  1
 16 17  1  0
 17 18  2  0
 17 19  1  0
 19 20  1  1
 19 21  1  0
 21 22  1  0
 22 23  2  0
 23 24  1  0
 24 25  2  0
 26 24  1  6
 11  4  1  0
 26 15  1  0
 25  9  1  0
 26 19  1  0
M  END
>  <identifier>  (113) 
CNP0348610.1

>  <canonical_smiles>  (113) 
CC(C)C1=C(O)C(=O)C2=C(C1=O)[C@H](O)[C@@H]1OC(=O)[C@@]3(C)CC=CC(=C2)[C@@H]13

>  <standard_inchi>  (113) 
InChI=1S/C20H20O6/c1-8(2)11-15(22)12-10(14(21)16(11)23)7-9-5-4-6-20(3)13(9)18(17(12)24)26-19(20)25/h4-5,7-8,13,17-18,23-24H,6H2,1-3H3/t13-,17-,18+,20-/m0/s1

>  <standard_inchi_key>  (113) 
UJZKICMAGUFXSG-NTCOEUGSSA-N

>  <name>  (113) 
1 2-anhydroballotiquinone

>  <iupac_name>  (113) 
(9~{S},10~{R},13~{S},17~{R})-5,9-dihydroxy-6-isopropyl-13-methyl-11-oxatetracyclo[8.6.1.0^{3,8}.0^{13,17}]heptadeca-1,3(8),5,15-tetraene-4,7,12-trione

>  <annotation_level>  (113) 
5

>  <total_atom_count>  (113) 
46

>  <heavy_atom_count>  (113) 
26

>  <molecular_weight>  (113) 
356.37

>  <exact_molecular_weight>  (113) 
356.12599

>  <molecular_formula>  (113) 
C20H20O6

>  <alogp>  (113) 
1.71

>  <topological_polar_surface_area>  (113) 
100.90

>  <rotatable_bond_count>  (113) 
1

>  <hydrogen_bond_acceptors>  (113) 
6

>  <hydrogen_bond_donors>  (113) 
2

>  <hydrogen_bond_acceptors_lipinski>  (113) 
6

>  <hydrogen_bond_donors_lipinski>  (113) 
2

>  <lipinski_rule_of_five_violations>  (113) 
0

>  <aromatic_rings_count>  (113) 
0

>  <qed_drug_likeliness>  (113) 
0.55

>  <formal_charge>  (113) 
0

>  <fractioncsp3>  (113) 
0.45

>  <number_of_minimal_rings>  (113) 
4

>  <van_der_walls_volume>  (113) 
308.82

>  <contains_sugar>  (113) 
False

>  <contains_ring_sugars>  (113) 
False

>  <contains_linear_sugars>  (113) 
False

>  <murcko_framework>  (113) 
O1CC2CC=CC3=CC4=C(CC=CC4)CC1C32

>  <np_likeness>  (113) 
2.66

>  <chemical_class>  (113) 
Lactones

>  <chemical_sub_class>  (113) 
Gamma butyrolactones

>  <chemical_super_class>  (113) 
Organoheterocyclic compounds

>  <direct_parent_classification>  (113) 
Gamma butyrolactones

>  <np_classifier_pathway>  (113) 
Terpenoids

>  <np_classifier_superclass>  (113) 
Diterpenoids

>  <np_classifier_class>  (113) 
Abeoabietane diterpenoids

>  <np_classifier_is_glycoside>  (113) 
False

>  <organisms>  (113) 
Salvia ballotiflora

>  <collections>  (113) 
BIOFACQUIM|Latin America dataset

>  <dois>  (113) 
10.3390/molecules22101690

>  <synonyms>  (113) 
1 2-anhydroballotiquinone

>  <cas>  (113) 
nan

$$$$

     RDKit          2D

 20 22  0  0  0  0  0  0  0  0999 V2000
    1.3524   -3.1031    0.0000 O   0  0  0  0  0  0  0  0  0  0  0  0
    0.8604   -1.6861    0.0000 C   0  0  0  0  0  0  0  0  0  0  0  0
    1.8416   -0.5515    0.0000 C   0  0  0  0  0  0  0  0  0  0  0  0
    3.3148   -0.8340    0.0000 C   0  0  0  0  0  0  0  0  0  0  0  0
    3.8067   -2.2510    0.0000 O   0  0  0  0  0  0  0  0  0  0  0  0
    4.2960    0.3006    0.0000 C   0  0  0  0  0  0  0  0  0  0  0  0
    3.8040    1.7176    0.0000 C   0  0  0  0  0  0  0  0  0  0  0  0
    4.7852    2.8522    0.0000 O   0  0  0  0  0  0  0  0  0  0  0  0
    2.3308    2.0001    0.0000 C   0  0  0  0  0  0  0  0  0  0  0  0
    1.3496    0.8655    0.0000 C   0  0  0  0  0  0  0  0  0  0  0  0
   -0.1235    1.1480    0.0000 O   0  0  0  0  0  0  0  0  0  0  0  0
   -1.1047    0.0134    0.0000 C   0  0  0  0  0  0  0  0  0  0  0  0
   -2.5779    0.2959    0.0000 C   0  0  0  0  0  0  0  0  0  0  0  0
   -3.0699    1.7129    0.0000 C   0  0  0  0  0  0  0  0  0  0  0  0
   -4.5430    1.9953    0.0000 C   0  0  0  0  0  0  0  0  0  0  0  0
   -5.5242    0.8608    0.0000 C   0  0  0  0  0  0  0  0  0  0  0  0
   -5.0323   -0.5563    0.0000 C   0  0  0  0  0  0  0  0  0  0  0  0
   -3.5591   -0.8387    0.0000 C   0  0  0  0  0  0  0  0  0  0  0  0
   -0.6128   -1.4036    0.0000 C   0  0  0  0  0  0  0  0  0  0  0  0
   -1.5940   -2.5382    0.0000 O   0  0  0  0  0  0  0  0  0  0  0  0
  1  2  2  0
  2  3  1  0
  3  4  2  0
  4  5  1  0
  4  6  1  0
  6  7  2  0
  7  8  1  0
  7  9  1  0
  9 10  2  0
 10 11  1  0
 11 12  1  0
 12 13  1  1
 13 14  2  0
 14 15  1  0
 15 16  2  0
 16 17  1  0
 17 18  2  0
 12 19  1  0
 19 20  1  6
 19  2  1  0
 10  3  1  0
 18 13  1  0
M  END
>  <identifier>  (114) 
CNP0226937.1

>  <canonical_smiles>  (114) 
O=C1C2=C(O)C=C(O)C=C2O[C@H](C2=CC=CC=C2)[C@H]1O

>  <standard_inchi>  (114) 
InChI=1S/C15H12O5/c16-9-6-10(17)12-11(7-9)20-15(14(19)13(12)18)8-4-2-1-3-5-8/h1-7,14-17,19H/t14-,15+/m0/s1

>  <standard_inchi_key>  (114) 
SUYJZKRQHBQNCA-LSDHHAIUSA-N

>  <name>  (114) 
Pinobanksin

>  <iupac_name>  (114) 
(2~{R},3~{R})-3,5,7-trihydroxy-2-phenyl-chroman-4-one

>  <annotation_level>  (114) 
5

>  <total_atom_count>  (114) 
32

>  <heavy_atom_count>  (114) 
20

>  <molecular_weight>  (114) 
272.26

>  <exact_molecular_weight>  (114) 
272.06847

>  <molecular_formula>  (114) 
C15H12O5

>  <alogp>  (114) 
1.78

>  <topological_polar_surface_area>  (114) 
86.99

>  <rotatable_bond_count>  (114) 
1

>  <hydrogen_bond_acceptors>  (114) 
5

>  <hydrogen_bond_donors>  (114) 
3

>  <hydrogen_bond_acceptors_lipinski>  (114) 
5

>  <hydrogen_bond_donors_lipinski>  (114) 
3

>  <lipinski_rule_of_five_violations>  (114) 
0

>  <aromatic_rings_count>  (114) 
2

>  <qed_drug_likeliness>  (114) 
0.74

>  <formal_charge>  (114) 
0

>  <fractioncsp3>  (114) 
0.13

>  <number_of_minimal_rings>  (114) 
3

>  <van_der_walls_volume>  (114) 
229.20

>  <contains_sugar>  (114) 
False

>  <contains_ring_sugars>  (114) 
False

>  <contains_linear_sugars>  (114) 
False

>  <murcko_framework>  (114) 
O1c2ccccc2CCC1c3ccccc3

>  <np_likeness>  (114) 
2.07

>  <chemical_class>  (114) 
Flavonoids

>  <chemical_sub_class>  (114) 
Flavans

>  <chemical_super_class>  (114) 
Phenylpropanoids and polyketides

>  <direct_parent_classification>  (114) 
Flavanonols

>  <np_classifier_pathway>  (114) 
Shikimates and Phenylpropanoids

>  <np_classifier_superclass>  (114) 
Flavonoids

>  <np_classifier_class>  (114) 
Dihydroflavonols

>  <np_classifier_is_glycoside>  (114) 
False

>  <organisms>  (114) 
Acacia simplicifolia|Achillea ochroleuca|Alnus sieboldiana|Alpinia katsumadai|Alpinia officinarum|Amentotaxus argotaenia|Amomum krervanh|Apis species|Arachniodes exilis|Aristolochia durior|Axinyssa tethyoides|Baccharis bigelovii|Baccharis oxydonta|Bowdichia virgilioides|Bretschneidera sinensis|Bulbophyllum odoratissimum|Castanea mollissima|Centaurea zuccariniana|Chromolaena chasleae|Clathria reinwardti|Cordyline cannifolia|Cousinia canescens|Cressa cretica|Cyperus pilosus|Dalbergia parviflora|Delesseria sanguinea|Diploschistes violarius|Echinus auritus|Eremophila alternifolia|Eremophila macmillaniana|Eremophila spp.|Eria linearifolia|Firmiana simplex|Flourensia riparia|Flourensia riparia Grisebach|Fructus galangae|Graphiopsis chlorocephala|Grazielia serrata|Gymnoascus reesii|Helichrysum tenuifolium|Iris bungei|Larix dahurica|Lebeckia plukenetiana|Lindheimera texana|Lychnophora diamantinana|Melaleuca cuticularis|Menyanthes trifoliata|Mexican Brown Propolis|Nauclea parva|Negombata corticata|Oricia gabonensis|Oroxylum indicum|Panagrellus redivivus|Parkia clappertoniana|Parmelia quercina|Paspalum dilatatum|Pericopsis angolensis|Pholas dactylus|Physocarpus intermedius|Pinus banksiana|Pinus excelsa|Pinus spp.|Platanus vulgaris|Plumbago indica|Polygonum nodosum|Polypodiodes niponica|Polyporus confluens|Populus deltoides|Primulina dryas|Pseudophryne australis|Rhododendron dauricum|Saraca asoca|Scutia buxifolia|Securigera securidaca|Senecio gallicus|Siparuna macrotepala|Strychnos tomentosa|Tetradenia glauca|Teucrium scorodonia|Thamnophis butleri|Tilia platyphyllos|Tinospora hainanensis|Titanotrichum oldhamii|Trichothecium sympodiale|Uvaria microcarpa|Vachellia pennatula|Vernonia wildii|Veronica anagallis|Waitzia acuminata|Wrightia tinctoria|Xylaria hypoxylon

>  <collections>  (114) 
ANPDB|AnalytiCon Discovery NPs|Australian natural products|BIOFACQUIM|CMAUP (cCollective molecular activities of useful plants)|ChEBI NPs|KNApSaCK|Latin America dataset|NANPDB (Natural Products from Northern African Sources)|NPASS|NPEdia|Phyto4Health|SANCDB|Super Natural II|TCMDB-Taiwan (Traditional Chinese Medicine database)|VietHerb|ZINC NP

>  <dois>  (114) 
10.1007/s00425-015-2256-x|10.1016/0031-9422(90)89060-m|10.1016/s0021-9673(00)99190-8|10.1021/jf400779w|10.1021/np900676y|10.3390/molecules23040852

>  <synonyms>  (114) 
548-82-3|3|5|7-Trihydroxyflavanone|Pinobaksin|(2R|3R)-pinobanksin|BK3ABR33DT|(2r|3r)-3|5|7-trihydroxy-2-phenyl-2|3-dihydro-4h-chromen-4-one|CHEMBL608410|CHEBI:28103|2|3-Dihydro-3|5|7-trihydroxy-2-phenyl-4H-1-benzopyran-4-one|3|5|7-Trihydroxyflavanone; Dihydrogalangin|(2R|3R)-3|5|7-Trihydroxyflavanone|UNII-BK3ABR33DT|(2R|3R)-3|5|7-Trihydroxy-2-phenyl-chroman-4-one|MEGxp0_001314|SCHEMBL1045054|ACon1_000534|Pinobanksin| >=95% (HPLC)|DTXSID10203287|HY-N3062|BDBM50304071|MFCD07784478|4H-1-Benzopyran-4-one| 2|3-dihydro-3|5|7-trihydroxy-2-phenyl-|(2R|3R)-|AKOS032948403|NCGC00168987-01|PS-12128|CS-0023135|C09826|E87105|Q953294|BRD-K52291974-001-01-7|(2R|3R)-3|5|7-trihydroxy-2-phenyl-3|4-dihydro-2H-1-benzopyran-4-one|4H-1-BENZOPYRAN-4-ONE| 2|3-DIHYDRO-3|5|7-TRIHYDROXY-2-PHENYL-| (2R|3R)-|pinobanksin|Indole-3-acetic acid

>  <cas>  (114) 
548-82-3

$$$$

     RDKit          2D

 28 30  0  0  0  0  0  0  0  0999 V2000
    1.0225   -5.3833    0.0000 C   0  0  0  0  0  0  0  0  0  0  0  0
    1.2841   -3.9063    0.0000 C   0  0  0  0  0  0  0  0  0  0  0  0
    2.6940   -3.3943    0.0000 O   0  0  0  0  0  0  0  0  0  0  0  0
    0.1357   -2.9413    0.0000 O   0  0  0  0  0  0  0  0  0  0  0  0
    0.3973   -1.4642    0.0000 C   0  0  0  0  0  0  0  0  0  0  0  0
    1.8072   -0.9523    0.0000 C   0  0  0  0  0  0  0  0  0  0  0  0
    2.0688    0.5248    0.0000 C   0  0  0  0  0  0  0  0  0  0  0  0
    3.4787    1.0367    0.0000 C   0  0  0  0  0  0  0  0  0  0  0  0
    4.9787    1.0356    0.0000 C   0  0  0  0  0  0  0  0  0  0  0  0
    3.7381   -0.4407    0.0000 C   0  0  0  0  0  0  0  0  0  0  0  0
    5.1472   -0.9547    0.0000 O   0  0  0  0  0  0  0  0  0  0  0  0
    3.7403    2.5138    0.0000 C   0  0  0  0  0  0  0  0  0  0  0  0
    2.5919    3.4788    0.0000 C   0  0  0  0  0  0  0  0  0  0  0  0
    1.1820    2.9668    0.0000 C   0  0  0  0  0  0  0  0  0  0  0  0
    0.9204    1.4898    0.0000 C   0  0  0  0  0  0  0  0  0  0  0  0
   -0.2279    2.4548    0.0000 C   0  0  0  0  0  0  0  0  0  0  0  0
   -0.4895    0.9778    0.0000 C   0  0  0  0  0  0  0  0  0  0  0  0
   -0.7511   -0.4992    0.0000 C   0  0  0  0  0  0  0  0  0  0  0  0
   -2.1610   -1.0112    0.0000 C   0  0  0  0  0  0  0  0  0  0  0  0
   -2.4225   -2.4882    0.0000 O   0  0  0  0  0  0  0  0  0  0  0  0
   -3.3093   -0.0462    0.0000 C   0  0  0  0  0  0  0  0  0  0  0  0
   -4.7192   -0.5582    0.0000 C   0  0  0  0  0  0  0  0  0  0  0  0
   -5.8676    0.4069    0.0000 C   0  0  0  0  0  0  0  0  0  0  0  0
   -4.9808   -2.0352    0.0000 C   0  0  0  0  0  0  0  0  0  0  0  0
   -3.0478    1.4309    0.0000 C   0  0  0  0  0  0  0  0  0  0  0  0
   -4.1961    2.3959    0.0000 O   0  0  0  0  0  0  0  0  0  0  0  0
   -1.6378    1.9428    0.0000 C   0  0  0  0  0  0  0  0  0  0  0  0
   -1.3763    3.4199    0.0000 O   0  0  0  0  0  0  0  0  0  0  0  0
  1  2  1  0
  2  3  2  0
  2  4  1  0
  5  4  1  1
  5  6  1  0
  7  6  1  6
  7  8  1  0
  8  9  1  1
  8 10  1  0
 10 11  1  0
  8 12  1  0
 12 13  1  0
 13 14  1  0
 14 15  1  0
 15 16  1  6
 15 17  1  0
 17 18  2  0
 18 19  1  0
 19 20  2  0
 19 21  1  0
 21 22  1  0
 22 23  1  0
 22 24  1  0
 21 25  2  0
 25 26  1  0
 25 27  1  0
 27 28  2  0
 18  5  1  0
 15  7  1  0
 27 17  1  0
M  END
>  <identifier>  (115) 
CNP0080277.1

>  <canonical_smiles>  (115) 
CC(=O)O[C@@H]1C[C@H]2[C@@](C)(CO)CCC[C@]2(C)C2=C1C(=O)C(C(C)C)=C(O)C2=O

>  <standard_inchi>  (115) 
InChI=1S/C22H30O6/c1-11(2)15-18(25)16-13(28-12(3)24)9-14-21(4,10-23)7-6-8-22(14,5)17(16)20(27)19(15)26/h11,13-14,23,26H,6-10H2,1-5H3/t13-,14+,21-,22+/m1/s1

>  <standard_inchi_key>  (115) 
GRUVGBVSXJLAOU-FDQSAEMMSA-N

>  <name>  (115) 
7a-acetoxy-19-hydroxyroyleanone

>  <iupac_name>  (115) 
[(1~{S},4~{a}~{S},9~{R},10~{a}~{R})-6-hydroxy-1-(hydroxymethyl)-7-isopropyl-1,4~{a}-dimethyl-5,8-dioxo-2,3,4,9,10,10~{a}-hexahydrophenanthren-9-yl] acetate

>  <annotation_level>  (115) 
5

>  <total_atom_count>  (115) 
58

>  <heavy_atom_count>  (115) 
28

>  <molecular_weight>  (115) 
390.48

>  <exact_molecular_weight>  (115) 
390.20424

>  <molecular_formula>  (115) 
C22H30O6

>  <alogp>  (115) 
3.04

>  <topological_polar_surface_area>  (115) 
100.90

>  <rotatable_bond_count>  (115) 
3

>  <hydrogen_bond_acceptors>  (115) 
6

>  <hydrogen_bond_donors>  (115) 
2

>  <hydrogen_bond_acceptors_lipinski>  (115) 
6

>  <hydrogen_bond_donors_lipinski>  (115) 
2

>  <lipinski_rule_of_five_violations>  (115) 
0

>  <aromatic_rings_count>  (115) 
0

>  <qed_drug_likeliness>  (115) 
0.57

>  <formal_charge>  (115) 
0

>  <fractioncsp3>  (115) 
0.68

>  <number_of_minimal_rings>  (115) 
3

>  <van_der_walls_volume>  (115) 
362.58

>  <contains_sugar>  (115) 
False

>  <contains_ring_sugars>  (115) 
False

>  <contains_linear_sugars>  (115) 
False

>  <murcko_framework>  (115) 
C1=CCC2=C(C1)CCC3CCCCC23

>  <np_likeness>  (115) 
2.89

>  <chemical_class>  (115) 
Prenol lipids

>  <chemical_sub_class>  (115) 
Diterpenoids

>  <chemical_super_class>  (115) 
Lipids and lipid-like molecules

>  <direct_parent_classification>  (115) 
Diterpenoids

>  <np_classifier_pathway>  (115) 
Terpenoids

>  <np_classifier_superclass>  (115) 
Diterpenoids

>  <np_classifier_class>  (115) 
Abeoabietane diterpenoids

>  <np_classifier_is_glycoside>  (115) 
False

>  <organisms>  (115) 
Salvia ballotiflora

>  <collections>  (115) 
BIOFACQUIM|Latin America dataset

>  <dois>  (115) 
10.3390/molecules22101690

>  <synonyms>  (115) 
7a-acetoxy-19-hydroxyroyleanone

>  <cas>  (115) 
nan

$$$$

     RDKit          2D

 19 21  0  0  0  0  0  0  0  0999 V2000
    1.3568   -3.2007    0.0000 O   0  0  0  0  0  0  0  0  0  0  0  0
    0.8261   -1.7977    0.0000 C   0  0  0  0  0  0  0  0  0  0  0  0
   -0.6542   -1.5557    0.0000 C   0  0  0  0  0  0  0  0  0  0  0  0
   -1.1849   -0.1527    0.0000 C   0  0  0  0  0  0  0  0  0  0  0  0
   -2.6652    0.0892    0.0000 C   0  0  0  0  0  0  0  0  0  0  0  0
   -3.1959    1.4922    0.0000 C   0  0  0  0  0  0  0  0  0  0  0  0
   -4.6763    1.7341    0.0000 C   0  0  0  0  0  0  0  0  0  0  0  0
   -5.6260    0.5730    0.0000 C   0  0  0  0  0  0  0  0  0  0  0  0
   -5.0953   -0.8300    0.0000 C   0  0  0  0  0  0  0  0  0  0  0  0
   -3.6149   -1.0719    0.0000 C   0  0  0  0  0  0  0  0  0  0  0  0
   -0.2352    1.0083    0.0000 O   0  0  0  0  0  0  0  0  0  0  0  0
    1.2452    0.7664    0.0000 C   0  0  0  0  0  0  0  0  0  0  0  0
    2.1949    1.9275    0.0000 C   0  0  0  0  0  0  0  0  0  0  0  0
    3.6752    1.6855    0.0000 C   0  0  0  0  0  0  0  0  0  0  0  0
    4.6249    2.8466    0.0000 O   0  0  0  0  0  0  0  0  0  0  0  0
    4.2059    0.2825    0.0000 C   0  0  0  0  0  0  0  0  0  0  0  0
    3.2562   -0.8785    0.0000 C   0  0  0  0  0  0  0  0  0  0  0  0
    3.7869   -2.2815    0.0000 O   0  0  0  0  0  0  0  0  0  0  0  0
    1.7758   -0.6366    0.0000 C   0  0  0  0  0  0  0  0  0  0  0  0
  1  2  2  0
  2  3  1  0
  3  4  1  0
  4  5  1  1
  5  6  2  0
  6  7  1  0
  7  8  2  0
  8  9  1  0
  9 10  2  0
  4 11  1  0
 11 12  1  0
 12 13  2  0
 13 14  1  0
 14 15  1  0
 14 16  2  0
 16 17  1  0
 17 18  1  0
 17 19  2  0
 19  2  1  0
 10  5  1  0
 19 12  1  0
M  END
>  <identifier>  (116) 
CNP0175595.1

>  <canonical_smiles>  (116) 
O=C1C[C@@H](C2=CC=CC=C2)OC2=CC(O)=CC(O)=C12

>  <standard_inchi>  (116) 
InChI=1S/C15H12O4/c16-10-6-11(17)15-12(18)8-13(19-14(15)7-10)9-4-2-1-3-5-9/h1-7,13,16-17H,8H2/t13-/m0/s1

>  <standard_inchi_key>  (116) 
URFCJEUYXNAHFI-ZDUSSCGKSA-N

>  <name>  (116) 
Pinocembrin

>  <iupac_name>  (116) 
(2~{S})-5,7-dihydroxy-2-phenyl-chroman-4-one

>  <annotation_level>  (116) 
5

>  <total_atom_count>  (116) 
31

>  <heavy_atom_count>  (116) 
19

>  <molecular_weight>  (116) 
256.26

>  <exact_molecular_weight>  (116) 
256.07356

>  <molecular_formula>  (116) 
C15H12O4

>  <alogp>  (116) 
2.80

>  <topological_polar_surface_area>  (116) 
66.76

>  <rotatable_bond_count>  (116) 
1

>  <hydrogen_bond_acceptors>  (116) 
4

>  <hydrogen_bond_donors>  (116) 
2

>  <hydrogen_bond_acceptors_lipinski>  (116) 
4

>  <hydrogen_bond_donors_lipinski>  (116) 
2

>  <lipinski_rule_of_five_violations>  (116) 
0

>  <aromatic_rings_count>  (116) 
2

>  <qed_drug_likeliness>  (116) 
0.82

>  <formal_charge>  (116) 
0

>  <fractioncsp3>  (116) 
0.13

>  <number_of_minimal_rings>  (116) 
3

>  <van_der_walls_volume>  (116) 
220.86

>  <contains_sugar>  (116) 
False

>  <contains_ring_sugars>  (116) 
False

>  <contains_linear_sugars>  (116) 
False

>  <murcko_framework>  (116) 
O1c2ccccc2CCC1c3ccccc3

>  <np_likeness>  (116) 
1.65

>  <chemical_class>  (116) 
Flavonoids

>  <chemical_sub_class>  (116) 
Flavans

>  <chemical_super_class>  (116) 
Phenylpropanoids and polyketides

>  <direct_parent_classification>  (116) 
Flavanones

>  <np_classifier_pathway>  (116) 
Shikimates and Phenylpropanoids

>  <np_classifier_superclass>  (116) 
Flavonoids

>  <np_classifier_class>  (116) 
Flavanones

>  <np_classifier_is_glycoside>  (116) 
False

>  <organisms>  (116) 
A new engineered strain of Saccharomyces cerevisiae BY-OA [CaCYP716C49]|Aaptos ciliata|Abies excelsa|Abies pinsapo var. marocana|Acanthosyris paulo-alvinii|Acer saccharum|Achlya heterosexualis|Aconitum contortum|Acrocarpia paniculata|Adina trichotoma|Aethalium septicum|Afraegle paniculata|Afrocarpus gracilior|Agardhiella tenera|Agave xylonacantha|Ageratum mexicanum|Aglaia perviridis|Alnus spp.|Alpinia katsumadai|Alpinia oxyphylla|Alpinia zerumbet|Alstonia spectabilis|Alternaria macrospora|Amentotaxus argotaenia|Amomum krervanh|Amorphophallus konjac|Ampelocera edentula|Angelica acutiloba|Angelica pancicii|Aniba santalodora|Anodendron affine|Anomianthus dulcis|Anthemis cretica|Antiphiona pinnatisecta|Apis mellifera|Arachniodes exilis|Ardisia japonica|Argemone aenea|Armina maculata|Arnica mollis|Arnica parryi|Artemisia argyi|Aspergillus ruber|Astragalus circassicus|Astragalus glycyphyllos|Athrixia elata|Bacillus litoralis|Beilschmiedia madang|Bethencourtia palmensis|Betula alnoides|Boesenbergia pandurata|Boesenbergia rotunda|Boesenbergia rotunda (LINN.) MANSF.|Bombus terrestris|Boswellia ovalifoliolata|Botryotrichum murorum|Botrytis cinerea|Brassica carinata|Broussonetia papyrifera|Bryonia alba|Buxus hildebrandtii|Callicarpa acuminata|Callistemon coccineus|Calophyllum inophyllum|Campanula choziatowskyi|Carpha glomerata|Cassinia subtropica|Castanea mollissima|Cedrela salvadorensis|Celastrus kusanoi|Centaurea cheiranthifolia|Centaurea scoparia|Centaurea sonchifolia|Ceratiomyxa fruticulosa|Chrysosporum ovalisporum|Citrus spp.|Cladanthus arabicus|Clathria basilana|Colchicum arenarium|Colchicum filifolium|Combretum albopunctatum Suesseng|Cortinellus berkeleyanus|Cotinus coggygria|Cratoxylum pruniflorum|Cressa cretica|Croton geayi|Croton gratissimus|Cryptostylis fulva|Cyanostegia angustifolia|Cynoglossum macrostylum|Dactylorhiza viridis|Dalbergia nitidula|Dalbergia odorifera|Dalbergia parviflora|Daphnandra johnsonii|Delesseria sanguinea|Desmos cochinchinensis|Dialium excelsum|Dianella revoluta|Diplopterygium glaucum|Diploschistes violarius|Dodonaea angustifolia|Drymaria cordata|Drypetes tessmanniana|Dysidea fragilis|Echinacea simulata|Echinus auritus|Enicosanthum cupulare|Erechtites quadridentata|Eremurus chinensis|Eria linearifolia|Eriodictyon californicum|Erodendrum neriifolium|Erythrina burttii|Erythrina hypaphorus|Erythrina subumbrans|Escontria chiotilla|Esox lucius|Etmopterus spinax|Eucalyptus resinifera|Eucalyptus spp.|Eucryphia cordifolia|Euphorbia hirta|Euphorbia hylonoma|Euphrasia genargentea|Eurycoma harmandiana|Flourensia hirsuta|Flourensia ilicifolia|Flourensia retinophylla|Gaillardia coahuilensis|Garcinia cambogia|Glycyrrhiza glabra|Glycyrrhiza inflata|Glycyrrhiza uralensis|Goniothalamus griffithii|Gratiola officinalis|Grazielia serrata|Grindelia discoidea|Gymnoascus reesii|Gyrothyra underwoodiana|Halobacillus litoralis|Hardenbergia violacea|Hardwickia pinnata|Helichrysum forskahlii|Helichrysum italicum|Helichrysum spp.|Helicoverpa armigera|Heliotropium scabrum|Helleborus macranthus|Hemiselmis virescens|Hertia cheirifolia|Hippeastrum aulicum|Holothuria atra|Hura crepitans|Hylotrupes bajulus|Hypericum reptans|Iris kashmiriana|Iryanthera polyneura|Ixeris debilis|Jacobaea argunensis|Justicia betonica|Kaempferia pandurata|Kalanchoe spathulata|Kniphofia foliosa|Kokoona ochracea|Lactarius mitissimus|Laggera aurita|Lamprolobium fruticosum|Laurencia decumbens|Lemonia spectabilis|Lentinus tigrinus|Lepechinia urbanii|Leuconostoc mesenteroides|Licaria chrysophylla|Lobophytum durum|Lonchocarpus chiricanus|Lycopodium japonicum|Lysimachia fordiana|Maackia tashiroi|Maclura cochinchinensis|Marasmiellus troyanus|Marasmius graminum|Matricaria sabulosa|Matsucoccus josephi|Maytenus chuchuhuasha|Melaleuca cuticularis|Mentha pulegium|Mentzelia decapetala|Methanosarcina barkeri|Mexican Brown Propolis|Mexican propolis|Mikania grazielae|Mimosa pigra|Mitracarpus scaber|Moschus moschiferus|Mucuna holtonii|Nannizzia gypsea|Neolitsea villosa|Neonauclea zeylanica|Nepytia freemani|Nonomuraea dietziae|Oocystis polymorpha|Ophiocordyceps heteropoda|Orgyia pseudotsugata|Oricia gabonensis|Ormosia hosiei|Ornithoglossum viride|Oroxylum indicum|Orthosiphon spicatus|Oxytropis falcata|Pachygone dasycarpa|Parkia clappertoniana|Parmotrema nilgherrense|Pelargonium x hortorum|Pericopsis angolensis|Persea obovatifolia|Pertusaria truncata|Petasites laevigatus|Petunia axillaris subsp. parodii|Petunia nyctaginiflora|Phoebe grandis|Phonus arborescens|Pinna muricata|Pinus banksiana|Pinus cembra|Pinus clausa|Pinus excelsa|Pinus morrisonicola|Pinus pumila|Pinus spp.|Piper callosum|Piper gaudichaudianum|Piper hostmannianum|Piper rugosum|Piper sarmentosum|Piper sp.|Piptothrix areolare|Pittocaulon bombycophole|Pocillopora eydouxi|Podocarpus dacrydioides|Polyachyrus sphaerocephalus|Polypodiodes niponica|Polypodium decumanum|Populus spp.|Poterium sanguisorba|Preussia terricola|Prunus spp.|Pseudocyclosorus subochthodes|Pseudotsuga wilsoniana|Psychotria leiocarpa|Pterocaulon serrulatum|Pterolobium hexapetalum|Pteryxia terebinthina|Pulsatilla chinensis|Punica granatum|Quercus marilandica|Ranunculus asiaticus|Remirea maritima|Rhizophora tagal|Rhizopus microsporus var. chinensis|Rhododendron dauricum|Roemeria hybrida|Rubia akane|Rubia tetragona|Rubus laciniatus|Rubus pileatus|Rubus pungens|Russula queletii|Salix rosmarinifolia|Salvia dichroa|Salvia lavandulifolia|Salvia lavanduloides|Salvia patens|Salvia virgata|Saussurea salicifolia|Schizanthus tricolor|Schizophyllum lobatum|Scutellaria lateriflora|Scutellaria spp.|Scutia buxifolia|Scytalidium uredinicola|Senecio platyphylloides|Sideritis lanata|Sinapis alba|Siphula roccellaeformis|Solanum lanceolatum|Soymida febrifuga|Sphaeranthus confertifolius|Sphaeria rousseliana|Sphaerocoryne gracilis ssp. gracilis|Sporidesmium bakeri|Stenocarpella maydis|Stephania discolor|Streptomyces ambofaciens|Streptomyces bobili|Streptomyces corchorusii|Streptomyces matensis|Streptomyces ramocissimus|Streptomyces venezuelae|Strychnos amazonica|Strychnos tomentosa|Suillus granulatus|Syzygium cumini|Syzygium samarangense|Tamarix gallica|Tephrosia elata|Thalassiosira weissflogii|Trichothecium sympodiale|Trididemnum cyanophorum|Tsitsikamma favus|Turnera diffusa|Umbilicaria pustulata|Uncaria africana|Uvaria chamae|Uvaria lucida|Vachellia pennatula|Viburnum erubescens|Viguiera arenaria|Viguiera pinnatilobata|Viola hondoensis|Viscum coloratum|Vladimiria muliensis|Walsura yunnanensis|Wikstroemia viridiflora|Xanthorhiza simplicissima|Xylopia emarginata|Zebrina pendula|chinese propolis

>  <collections>  (116) 
ANPDB|Australian natural products|BIOFACQUIM|BitterDB|CMAUP (cCollective molecular activities of useful plants)|ChEBI NPs|ChemSpider NPs|FooDB|InterBioScreen Ltd|KNApSaCK|Latin America dataset|Mitishamba database|NANPDB (Natural Products from Northern African Sources)|NPACT|NPASS|NPEdia|NuBBEDB|Phenol-explorer|Phyto4Health|StreptomeDB|Super Natural II|TCMDB-Taiwan (Traditional Chinese Medicine database)|TIPdb (database of Taiwan indigenous plants)|VietHerb

>  <dois>  (116) 
10.1016/S0031-9422(00)91467-5|10.1016/j.bmc.2012.02.039|10.1016/j.bmcl.2013.04.032|10.1016/j.jbiotec.2009.03.013|10.1016/j.sajb.2013.11.012|10.1016/j.ymben.2018.10.001|10.1021/acs.jnatprod.8b00581|10.1021/acs.jnatprod.9b00721|10.1021/np010486c|10.1021/np030530j|10.1021/np070286m|10.1021/np200557e|10.1021/np50081a012|10.1021/np900068t|10.1021/np9003323|10.1021/np900676y|10.1021/np900772m|10.1071/ch9640428|10.3390/molecules23040852

>  <synonyms>  (116) 
480-39-7|Dihydrochrysin|(+)-Pinocembrin|Galangin flavanone|(S)-5|7-dihydroxy-2-phenylchroman-4-one|(2S)-pinocembrin|(S)-5|7-dihydroxyflavanone|4H-1-Benzopyran-4-one| 2|3-dihydro-5|7-dihydroxy-2-phenyl-| (2S)-|(2s)-5|7-dihydroxy-2-phenyl-2|3-dihydro-4h-chromen-4-one|pinocembrine|CHEMBL399910|CHEBI:28157|(S)-2|3-Dihydro-5|7-dihydroxy-2-phenyl-4H-1-benzopyran-4-one|8T7C8CH791|NSC-279005|SMR000232372|Pinocembrin (6CI)|NSC 43318|NSC 661207|UNII-8T7C8CH791|NSC-43318|Spectrum_001879|SpecPlus_000896|Spectrum2_001670|Spectrum3_001635|Spectrum4_001765|Spectrum5_000349|Oprea1_508274|BSPBio_003329|KBioGR_002249|KBioSS_002406|MLS000697595|MLS000728654|DivK1c_006992|SPBio_001859|DTXSID3075412|SCHEMBL10026578|BDBM26667|KBio1_001936|KBio2_002401|KBio2_004969|KBio2_007537|KBio3_002549|HMS2205J20|HY-N0575|CCG-39668|LMPK12140214|s3941|STL578139|AKOS004111068|SDCCGMLS-0066749.P001|NCGC00178137-01|AC-34601|AS-56293|XP162085|CS-0009111|C09827|SR-01000762561|BRD-K94689771-001-02-5|Pinocembrin| analytical standard| 95% (TLC)| solid|(2~{S})-5|7-bis(oxidanyl)-2-phenyl-2|3-dihydrochromen-4-one|(2S)-5|7-dihydroxy-2-phenyl-3|4-dihydro-2H-1-benzopyran-4-one|Pinocembrin

>  <cas>  (116) 
480-39-7

$$$$

     RDKit          2D

 26 29  0  0  0  0  0  0  0  0999 V2000
    5.4690   -0.9312    0.0000 C   0  0  0  0  0  0  0  0  0  0  0  0
    4.4852    0.2012    0.0000 C   0  0  0  0  0  0  0  0  0  0  0  0
    4.9740    1.6193    0.0000 C   0  0  0  0  0  0  0  0  0  0  0  0
    3.0127   -0.0845    0.0000 C   0  0  0  0  0  0  0  0  0  0  0  0
    2.5239   -1.5027    0.0000 C   0  0  0  0  0  0  0  0  0  0  0  0
    3.5076   -2.6350    0.0000 O   0  0  0  0  0  0  0  0  0  0  0  0
    1.0514   -1.7884    0.0000 C   0  0  0  0  0  0  0  0  0  0  0  0
    0.5626   -3.2066    0.0000 O   0  0  0  0  0  0  0  0  0  0  0  0
    0.0676   -0.6561    0.0000 C   0  0  0  0  0  0  0  0  0  0  0  0
    0.5564    0.7621    0.0000 C   0  0  0  0  0  0  0  0  0  0  0  0
    2.0289    1.0478    0.0000 C   0  0  0  0  0  0  0  0  0  0  0  0
    2.5177    2.4659    0.0000 O   0  0  0  0  0  0  0  0  0  0  0  0
   -0.4273    1.8944    0.0000 C   0  0  0  0  0  0  0  0  0  0  0  0
    0.0615    3.3126    0.0000 O   0  0  0  0  0  0  0  0  0  0  0  0
   -1.8999    1.6087    0.0000 C   0  0  0  0  0  0  0  0  0  0  0  0
   -2.3886    0.1905    0.0000 C   0  0  0  0  0  0  0  0  0  0  0  0
   -3.8612   -0.0952    0.0000 C   0  0  0  0  0  0  0  0  0  0  0  0
   -4.8449    1.0371    0.0000 C   0  0  0  0  0  0  0  0  0  0  0  0
   -4.3500   -1.5133    0.0000 C   0  0  0  0  0  0  0  0  0  0  0  0
   -3.3662   -2.6457    0.0000 C   0  0  0  0  0  0  0  0  0  0  0  0
   -1.8937   -2.3600    0.0000 C   0  0  0  0  0  0  0  0  0  0  0  0
   -1.4049   -0.9418    0.0000 C   0  0  0  0  0  0  0  0  0  0  0  0
   -0.9161    0.4763    0.0000 C   0  0  0  0  0  0  0  0  0  0  0  0
   -0.1936    0.8130    0.0000 O   0  0  0  0  0  0  0  0  0  0  0  0
   -1.8999    1.6087    0.0000 O   0  0  0  0  0  0  0  0  0  0  0  0
   -3.3724    1.3229    0.0000 C   0  0  0  0  0  0  0  0  0  0  0  0
  1  2  1  0
  2  3  1  0
  2  4  1  0
  4  5  2  0
  5  6  1  0
  5  7  1  0
  7  8  2  0
  7  9  1  0
  9 10  2  0
 10 11  1  0
 11 12  2  0
 10 13  1  0
 13 14  1  1
 13 15  1  0
 16 15  1  6
 16 17  1  0
 17 18  1  1
 17 19  1  0
 19 20  1  0
 20 21  1  0
 22 21  1  6
 22 23  1  0
 23 24  1  1
 23 25  1  0
 25 26  1  0
 11  4  1  0
 22 16  1  0
 22  9  1  0
 26 17  1  0
M  END
>  <identifier>  (117) 
CNP0230298.1

>  <canonical_smiles>  (117) 
CC(C)C1=C(O)C(=O)C2=C(C1=O)[C@H](O)C[C@H]1[C@]3(C)CCC[C@]21[C@H](O)OC3

>  <standard_inchi>  (117) 
InChI=1S/C20H26O6/c1-9(2)12-15(22)13-10(21)7-11-19(3)5-4-6-20(11,18(25)26-8-19)14(13)17(24)16(12)23/h9-11,18,21,23,25H,4-8H2,1-3H3/t10-,11+,18-,19-,20-/m1/s1

>  <standard_inchi_key>  (117) 
HWCRIILCNXONSY-SYMKQFHVSA-N

>  <name>  (117) 
Conacytone

>  <iupac_name>  (117) 
(1~{R},8~{R},10~{S},11~{S},14~{R})-4,8,14-trihydroxy-5-isopropyl-11-methyl-13-oxatetracyclo[9.3.3.0^{1,10}.0^{2,7}]heptadeca-2(7),4-diene-3,6-dione

>  <annotation_level>  (117) 
5

>  <total_atom_count>  (117) 
52

>  <heavy_atom_count>  (117) 
26

>  <molecular_weight>  (117) 
362.42

>  <exact_molecular_weight>  (117) 
362.17294

>  <molecular_formula>  (117) 
C20H26O6

>  <alogp>  (117) 
1.81

>  <topological_polar_surface_area>  (117) 
104.06

>  <rotatable_bond_count>  (117) 
1

>  <hydrogen_bond_acceptors>  (117) 
6

>  <hydrogen_bond_donors>  (117) 
3

>  <hydrogen_bond_acceptors_lipinski>  (117) 
6

>  <hydrogen_bond_donors_lipinski>  (117) 
3

>  <lipinski_rule_of_five_violations>  (117) 
0

>  <aromatic_rings_count>  (117) 
0

>  <qed_drug_likeliness>  (117) 
0.61

>  <formal_charge>  (117) 
0

>  <fractioncsp3>  (117) 
0.70

>  <number_of_minimal_rings>  (117) 
4

>  <van_der_walls_volume>  (117) 
322.38

>  <contains_sugar>  (117) 
False

>  <contains_ring_sugars>  (117) 
False

>  <contains_linear_sugars>  (117) 
False

>  <murcko_framework>  (117) 
O1CC2CCCC3(C4=C(CC=CC4)CCC23)C1

>  <np_likeness>  (117) 
2.90

>  <chemical_class>  (117) 
Prenol lipids

>  <chemical_sub_class>  (117) 
Diterpenoids

>  <chemical_super_class>  (117) 
Lipids and lipid-like molecules

>  <direct_parent_classification>  (117) 
Diterpenoids

>  <np_classifier_pathway>  (117) 
Terpenoids

>  <np_classifier_superclass>  (117) 
Diterpenoids

>  <np_classifier_class>  (117) 
Abeoabietane diterpenoids

>  <np_classifier_is_glycoside>  (117) 
True

>  <organisms>  (117) 
Salvia ballotiflora

>  <collections>  (117) 
BIOFACQUIM|Latin America dataset|Super Natural II

>  <dois>  (117) 
10.3390/molecules22101690

>  <synonyms>  (117) 
Conacytone

>  <cas>  (117) 
nan

$$$$

     RDKit          2D

 19 21  0  0  0  0  0  0  0  0999 V2000
    1.3568   -3.2007    0.0000 O   0  0  0  0  0  0  0  0  0  0  0  0
    0.8261   -1.7977    0.0000 C   0  0  0  0  0  0  0  0  0  0  0  0
   -0.6542   -1.5557    0.0000 C   0  0  0  0  0  0  0  0  0  0  0  0
   -1.1849   -0.1527    0.0000 C   0  0  0  0  0  0  0  0  0  0  0  0
   -2.6652    0.0892    0.0000 C   0  0  0  0  0  0  0  0  0  0  0  0
   -3.1959    1.4922    0.0000 C   0  0  0  0  0  0  0  0  0  0  0  0
   -4.6763    1.7341    0.0000 C   0  0  0  0  0  0  0  0  0  0  0  0
   -5.6260    0.5730    0.0000 C   0  0  0  0  0  0  0  0  0  0  0  0
   -5.0953   -0.8300    0.0000 C   0  0  0  0  0  0  0  0  0  0  0  0
   -3.6149   -1.0719    0.0000 C   0  0  0  0  0  0  0  0  0  0  0  0
   -0.2352    1.0083    0.0000 O   0  0  0  0  0  0  0  0  0  0  0  0
    1.2452    0.7664    0.0000 C   0  0  0  0  0  0  0  0  0  0  0  0
    2.1949    1.9275    0.0000 C   0  0  0  0  0  0  0  0  0  0  0  0
    3.6752    1.6855    0.0000 C   0  0  0  0  0  0  0  0  0  0  0  0
    4.6249    2.8466    0.0000 O   0  0  0  0  0  0  0  0  0  0  0  0
    4.2059    0.2825    0.0000 C   0  0  0  0  0  0  0  0  0  0  0  0
    3.2562   -0.8785    0.0000 C   0  0  0  0  0  0  0  0  0  0  0  0
    3.7869   -2.2815    0.0000 O   0  0  0  0  0  0  0  0  0  0  0  0
    1.7758   -0.6366    0.0000 C   0  0  0  0  0  0  0  0  0  0  0  0
  1  2  2  0
  2  3  1  0
  3  4  2  0
  4  5  1  0
  5  6  2  0
  6  7  1  0
  7  8  2  0
  8  9  1  0
  9 10  2  0
  4 11  1  0
 11 12  1  0
 12 13  2  0
 13 14  1  0
 14 15  1  0
 14 16  2  0
 16 17  1  0
 17 18  1  0
 17 19  2  0
 19  2  1  0
 10  5  1  0
 19 12  1  0
M  END
>  <identifier>  (118) 
CNP0280624.0

>  <canonical_smiles>  (118) 
O=C1C=C(C2=CC=CC=C2)OC2=CC(O)=CC(O)=C12

>  <standard_inchi>  (118) 
InChI=1S/C15H10O4/c16-10-6-11(17)15-12(18)8-13(19-14(15)7-10)9-4-2-1-3-5-9/h1-8,16-17H

>  <standard_inchi_key>  (118) 
RTIXKCRFFJGDFG-UHFFFAOYSA-N

>  <name>  (118) 
chrysin

>  <iupac_name>  (118) 
5,7-dihydroxy-2-phenyl-chromen-4-one

>  <annotation_level>  (118) 
5

>  <total_atom_count>  (118) 
29

>  <heavy_atom_count>  (118) 
19

>  <molecular_weight>  (118) 
254.24

>  <exact_molecular_weight>  (118) 
254.05791

>  <molecular_formula>  (118) 
C15H10O4

>  <alogp>  (118) 
2.87

>  <topological_polar_surface_area>  (118) 
70.67

>  <rotatable_bond_count>  (118) 
1

>  <hydrogen_bond_acceptors>  (118) 
4

>  <hydrogen_bond_donors>  (118) 
2

>  <hydrogen_bond_acceptors_lipinski>  (118) 
4

>  <hydrogen_bond_donors_lipinski>  (118) 
2

>  <lipinski_rule_of_five_violations>  (118) 
0

>  <aromatic_rings_count>  (118) 
3

>  <qed_drug_likeliness>  (118) 
0.70

>  <formal_charge>  (118) 
0

>  <fractioncsp3>  (118) 
0.00

>  <number_of_minimal_rings>  (118) 
3

>  <van_der_walls_volume>  (118) 
213.82

>  <contains_sugar>  (118) 
False

>  <contains_ring_sugars>  (118) 
False

>  <contains_linear_sugars>  (118) 
False

>  <murcko_framework>  (118) 
O1c2ccccc2CC=C1c3ccccc3

>  <np_likeness>  (118) 
1.23

>  <chemical_class>  (118) 
Flavonoids

>  <chemical_sub_class>  (118) 
Hydroxyflavonoids

>  <chemical_super_class>  (118) 
Phenylpropanoids and polyketides

>  <direct_parent_classification>  (118) 
5-hydroxyflavonoids

>  <np_classifier_pathway>  (118) 
Shikimates and Phenylpropanoids

>  <np_classifier_superclass>  (118) 
Flavonoids

>  <np_classifier_class>  (118) 
Flavones

>  <np_classifier_is_glycoside>  (118) 
False

>  <organisms>  (118) 
Aaptos ciliata|Abies excelsa|Abies pinsapo var. marocana|Acacia aulacocarpa|Acacia constricta|Acacia neovernicosa|Achlya heterosexualis|Aconitum contortum|Acrocarpia paniculata|Acronychia haplophylla|Acrosiphonia coalita|Adina cordifolia Roxb.|Agardhiella tenera|Ageratum mexicanum|Alligator sinensis|Alnus cordata|Aloe deltoideodonta|Alpinia katsumadai|Alpinia oxyphylla|Alpinia zerumbet|Alstonia spectabilis|Alternanthera sessilis|Alternaria macrospora|Amauris niavius|Ammodendron karelinii|Ampelocera edentula|Anacyclus pyrethrum|Anaxagorea luzonensis A.GRAY|Anemone flaccida|Angelica acutiloba|Anodendron affine|Anomianthus dulcis|Apis mellifera|Apis mellifera ligustica|Ardisia neriifolia|Arnica mollis|Arnica parryi|Arrabidaea samydoides|Artemisia campestris ssp. glutinosa|Ascotricha chartarum|Aspidosperma subincanum|Aster tataricus|Atractylis flava|Axinyssa tethyoides|Baccharis viminea|Bacillus litoralis|Bauhinia purpurea|Bombus terrestris|Bonnemaisonia asparagoides|Botrytis cinerea|Brachylaena perrieri|Brassica carinata|Bryonia alba|Buglossoides arvensis|Buxus hildebrandtii|Callicarpa acuminata|Callistemon coccineus|Camchaya loloana|Carpha glomerata|Cedrela salvadorensis|Centaurea pseudoscabiosa subsp.pseudoscabiosa Boiss.et aBuhse|Cereus bridgesii|Cetraria komarovii|Chaetomium globosum|Cheilanthes kaulfussii|Chenopodium graveolens|Chromodoris hamiltoni|Chrysanthemum morifolium|Chrysanthemum uliginosum|Chrysosporum ovalisporum|Cistus populifolius|Citrullus lanatus|Citrus funadoko|Clathria basilana|Conyza japonica|Corydalis mucronifera|Cotinus coggygria|Crambe hispanica subsp. abyssinica|Crinum giganteum|Crinum latifolium|Crotalus atrox|Croton geayi|Croton gratissimus|Cryptocarya aschersoniana|Cuscuta australis|Cusparia macrocarpa|Cyanostegia angustifolia|Cyperus pilosus|Cypripedium macranthos var. rebunense|Dactylorhiza viridis|Dalbergia nitidula|Dendrobium candidum|Dendrodoris limbata|Desmos cochinchinensis|Diplopterygium glaucum|Diplotropis ferruginea|Drypetes tessmanniana|Echinacea simulata|Elettaria cardamomum|Elmerrillia papuana|Elsholtzia bodinieri|Eremurus chinensis|Eriodictyon californicum|Eriodictyon sessilifolium|Erysimum siliculosum|Escallonia spp.|Escontria chiotilla|Eucalyptus resinifera|Eucalyptus viminalis|Eucryphia cordifolia|Eunicea knighti|Eupatorium argentinum|Euphorbia lata|Euphrasia genargentea|Euphrasia regelii|Euphrasia stricta|Eurycoma harmandiana|Flourensia resinosa|Garcinia cambogia|Goldfussia yunnanensis|Goniobranchus kuniei|Gratiola officinalis|Grindelia discoidea|Guatteria boliviana|Hakea acicularis|Halobacillus litoralis|Hedychium spicatum|Helichrysum lindleyi|Heliotropium pycnophyllum|Hemiselmis virescens|Hertia cheirifolia|Holothuria atra|Hortonia angustifolia|Humicola grisea|Hylotrupes bajulus|Hypericum perforatum|Hypericum reptans|Indigofera kirilowi|Ixeris debilis|Julbernardia globifera|Juniperus brevifolia|Justicia betonica|Kaempferia rotunda|Kalanchoe spathulata|Kniphofia foliosa|Laggera pterodonta|Laurentia longiflora|Lebeckia plukenetiana|Leitneria floridana|Lepechinia caulescens|Lepraria citrina|Licaria chrysophylla|Lobophytum durum|Lonicera japonica|Lysimachia fordiana|Malagasy connaraceous|Malus doumeri varl formosana|Maprounea guianensis|Marasmiellus troyanus|Maytenus chuchuhuasha|Medicosma fareana|Mentha sylvestris|Methanosarcina barkeri|Mexican Brown Propolis|Mexican propolis|Mikania hirsutissima|Miliusa balansae|Mimulus moschatus|Mimusops laurifolia|Myrrhis odorata|Neolentinus lepideus|Neolitsea villosa|Neonauclea zeylanica|Nonomuraea dietziae|Notholaena aschenborniana|Ononis vaginalis|Ophiocordyceps heteropoda|Ophiomastix mixta|Ormosia hosiei|Ornithoglossum viride|Oroxylum indicum|Orthosiphon spicatus|Oscillatoria raoi|Othonna macrophylla|Oxytropis falcata|Oxytropis pseudoglandulosa|Pachygone dasycarpa|Pajanelia multijuga|Panzeria canescens|Parinari campestris|Passiflora caerulea|Passiflora serratodigitata|Passifloraceae|Pentachondra pumila|Peritassa campestris|Peritassa compta|Pertusaria truncata|Petasites laevigatus|Petrosia hebes|Petunia nyctaginiflora|Phagnalon rupestre|Phlomis ostrowskiana|Phlox decussata|Phoma linga|Phyllostachys edulis|Physocarpus intermedius|Piliostigma thonningii|Pimpinella peregrina|Pinus aristata|Pinus excelsa|Pinus monticola|Pinus spp.|Pocillopora eydouxi|Polypodium decumanum|Polyporus confluens|Populus alba|Populus alba var.pyramdalis|Populus bejingensis|Populus canadensis|Populus davidiana|Populus pseudo-simonii|Populus spp.|Populus tomentosa|Populus xiaohei|Primnoa reseda|Prunus cerasus|Prunus persica|Pseudomonas fluorescens|Pseudotsuga sinensis var. wilsoniana|Pseudotsuga wilsoniana|Psiadia dentata|Pterolobium hexapetalum|Pteryxia terebinthina|Purpura aperta|Radula complanata|Ranunculus asiaticus|Remirea maritima|Rheedia acuminata|Rhizophora tagal|Rhizopus microsporus var. chinensis|Rhododendron dauricum|Rubia tetragona|Rubus laciniatus|Salix petiolaris|Salvia lanigera|Salvia lavandulifolia|Salvia pisidica|Sansevieria trifasciata|Saraca asoca|Saussurea salicifolia|Schizanthus tricolor|Schizophyllum lobatum|Scutellaria amoena|Scutellaria baicalensis|Scutellaria discolor|Scutellaria lateriflora|Scutellaria oreophila|Scutellaria orientalis|Scutellaria strigillosa|Scymnorhinus lichia|Securigera securidaca|Sinapis alba|Solanum crinitum|Solanum lanceolatum|Spartium junceum|Sphaeranthus confertifolius|Sphaerocoryne gracilis ssp. gracilis|Sporidesmium bakeri|Stenocarpella maydis|Stizophyllum riparium|Streptomyces corchorusii|Streptomyces matensis|Streptomyces ramocissimus|Streptomyces venezuelae|Strychnos amazonica|Symphyocladia latiuscula|Syphonota geographica|Tephrosia elata|Thermopsis mollis|Trichocoleopsis sacculata|Trididemnum cyanophorum|Tsitsikamma favus|Tubocapsicum anomalum|Ulmus sieboldiana|Uncaria africana|Uncaria longiflora|Uperoleia inundata|Ursinia speciosa|Utricularia vulgaris|Uvaria lucida|Viburnum erubescens|Viguiera pinnatilobata|Vincetoxicum amplexicaule|Vladimiria muliensis|Wikstroemia viridiflora|Xanthorhiza simplicissima|Zebrina pendula|chinese propolis

>  <collections>  (118) 
ANPDB|AnalytiCon Discovery NPs|Australian natural products|BIOFACQUIM|BitterDB|CMAUP (cCollective molecular activities of useful plants)|ChEBI NPs|ChemSpider NPs|ETM (Ethiopian Traditional Medicine) DB|FooDB|GNPS (Global Natural Products Social Molecular Networking)|HIM (Herbal Ingredients in-vivo Metabolism database)|HIT (Herbal Ingredients Targets)|InflamNat|KNApSaCK|Latin America dataset|Mitishamba database|NANPDB (Natural Products from Northern African Sources)|NPACT|NPASS|NPAtlas|NPCARE|NPEdia|NuBBEDB|Phenol-explorer|Phyto4Health|PubChem NPs|StreptomeDB|Super Natural II|TCMDB-Taiwan (Traditional Chinese Medicine database)|TCMID (Traditional Chinese Medicine Integrated Database)|TIPdb (database of Taiwan indigenous plants)|UNPD (Universal Natural Products Database)|VietHerb|Watermelon|p-ANAPL

>  <dois>  (118) 
10.1016/j.bmcl.2009.09.032|10.1016/j.bmcl.2009.11.024|10.1016/j.phytol.2012.10.004|10.1021/acs.jnatprod.8b00581|10.1021/acs.jnatprod.9b00721|10.1021/np010486c|10.1021/np030020p|10.1021/np50081a012|10.1021/np50103a006|10.1021/np900068t|10.1021/np900772m|10.1038/s41598-020-72497-3|10.1055/s-2005-864140|10.1071/ch9640428|10.1590/S0100-40422003000500003|10.3390/molecules23040852|10.4014/jmb.1108.08012

>  <synonyms>  (118) 
480-40-0|5|7-Dihydroxyflavone|5|7-Dihydroxy-2-phenyl-4H-chromen-4-one|Chrysine|Crysin|4H-1-Benzopyran-4-one| 5|7-dihydroxy-2-phenyl-|NSC-407436|FLAVONE| 5|7-DIHYDROXY-|Chrysinic acid|5|7-Dihydroxy-2-phenyl-4H-1-benzopyran-4-one|EINECS 207-549-7|UNII-3CN01F5ZJ5|BRN 0233276|3CN01F5ZJ5|DTXSID1022396|CHEBI:75095|MFCD00006834|CHEMBL117|DTXCID902396|5-18-04-00076 (Beilstein Handbook Reference)|CAS-480-40-0|SMR000112318|SR-01000765660|3ebo|4des|57D|Chrysin|(S)|5|7-diOH-Flavone|Flavone|7-dihydroxy-|Chrysin 99+%|Chrysin| 97%|Ois 3|Spectrum_000245|CHRYSIN INCI|CHRYSIN MI|Prestwick0_000889|Spectrum2_000753|Spectrum3_001399|Spectrum4_000780|Spectrum5_001503|Chrysin| analytical standard|Oprea1_045160|SCHEMBL44474|BSPBio_000678|BSPBio_002514|BSPBio_003018|KBioGR_001200|KBioSS_000725|MLS000697728|MLS001074879|MLS006011841|BIDD:ER0484|DivK1c_000614|SPECTRUM1500709|SPECTRUM1505144|SPBio_000766|SPBio_002897|BDBM7461|BPBio1_000746|GTPL8789|MEGxp0_001416|ACon1_000087|cid_5281607|HMS501O16|KBio1_000614|KBio2_000725|KBio2_003293|KBio2_005861|KBio3_002238|NINDS_000614|HMS1570B20|HMS1921E20|HMS2097B20|HMS2268I23|HMS3468N08|HMS3655L20|BCP22863|Tox21_302335|BBL010449|CCG-40148|LMPK12110189|NSC818102|s2281|STK801609|AKOS000275936|BCP9000172|CS-7531|DB15581|GS-0927|SDCCGMLS-0066586.P001|IDI1_000614|SMP1_000070|NCGC00016456-01|NCGC00094842-01|NCGC00168807-01|NCGC00255307-01|AC-10052|HY-14589|NCI60_003886|SY050125|AB00513947|C1652|NS00008874|SW197197-2|C-5980|EN300-303044|S00112|Chrysin 1000 microg\/mL in Acetonitrile:Methanol|A827426|Q973741|34B3B4AD-EEDD-4943-A1C6-8857D2FAA8E0|BRD-K22861715-001-07-5|Z1824566175|Passifloraceae|chrysin

>  <cas>  (118) 
480-40-0

$$$$

     RDKit          2D

 25 27  0  0  0  0  0  0  0  0999 V2000
   -6.7805    2.6968    0.0000 C   0  0  0  0  0  0  0  0  0  0  0  0
   -6.3648    1.2555    0.0000 O   0  0  0  0  0  0  0  0  0  0  0  0
   -4.9089    0.8948    0.0000 C   0  0  0  0  0  0  0  0  0  0  0  0
   -3.8685    1.9754    0.0000 C   0  0  0  0  0  0  0  0  0  0  0  0
   -2.4125    1.6147    0.0000 C   0  0  0  0  0  0  0  0  0  0  0  0
   -1.9969    0.1735    0.0000 C   0  0  0  0  0  0  0  0  0  0  0  0
   -0.5409   -0.1872    0.0000 C   0  0  0  0  0  0  0  0  0  0  0  0
   -0.1252   -1.6285    0.0000 C   0  0  0  0  0  0  0  0  0  0  0  0
    1.3307   -1.9891    0.0000 C   0  0  0  0  0  0  0  0  0  0  0  0
    1.7464   -3.4304    0.0000 O   0  0  0  0  0  0  0  0  0  0  0  0
    2.3711   -0.9086    0.0000 C   0  0  0  0  0  0  0  0  0  0  0  0
    3.8271   -1.2692    0.0000 C   0  0  0  0  0  0  0  0  0  0  0  0
    4.2427   -2.7105    0.0000 O   0  0  0  0  0  0  0  0  0  0  0  0
    4.8674   -0.1887    0.0000 C   0  0  0  0  0  0  0  0  0  0  0  0
    6.3234   -0.5493    0.0000 O   0  0  0  0  0  0  0  0  0  0  0  0
    4.4518    1.2526    0.0000 C   0  0  0  0  0  0  0  0  0  0  0  0
    5.4922    2.3332    0.0000 O   0  0  0  0  0  0  0  0  0  0  0  0
    5.0765    3.7745    0.0000 C   0  0  0  0  0  0  0  0  0  0  0  0
    2.9958    1.6133    0.0000 C   0  0  0  0  0  0  0  0  0  0  0  0
    1.9555    0.5327    0.0000 C   0  0  0  0  0  0  0  0  0  0  0  0
    0.4995    0.8934    0.0000 O   0  0  0  0  0  0  0  0  0  0  0  0
   -3.0372   -0.9071    0.0000 C   0  0  0  0  0  0  0  0  0  0  0  0
   -4.4932   -0.5464    0.0000 C   0  0  0  0  0  0  0  0  0  0  0  0
   -5.5336   -1.6270    0.0000 O   0  0  0  0  0  0  0  0  0  0  0  0
   -5.1179   -3.0683    0.0000 C   0  0  0  0  0  0  0  0  0  0  0  0
  1  2  1  0
  2  3  1  0
  3  4  2  0
  4  5  1  0
  5  6  2  0
  6  7  1  0
  7  8  2  0
  8  9  1  0
  9 10  2  0
  9 11  1  0
 11 12  2  0
 12 13  1  0
 12 14  1  0
 14 15  1  0
 14 16  2  0
 16 17  1  0
 17 18  1  0
 16 19  1  0
 19 20  2  0
 20 21  1  0
  6 22  1  0
 22 23  2  0
 23 24  1  0
 24 25  1  0
 23  3  1  0
 21  7  1  0
 20 11  1  0
M  END
>  <identifier>  (119) 
CNP0270093.0

>  <canonical_smiles>  (119) 
COC1=CC=C(C2=CC(=O)C3=C(O)C(O)=C(OC)C=C3O2)C=C1OC

>  <standard_inchi>  (119) 
InChI=1S/C18H16O7/c1-22-11-5-4-9(6-13(11)23-2)12-7-10(19)16-14(25-12)8-15(24-3)17(20)18(16)21/h4-8,20-21H,1-3H3

>  <standard_inchi_key>  (119) 
QIEMGQKOGFTYLN-UHFFFAOYSA-N

>  <name>  (119) 
5,6-Dihydroxy-7,3',4'-Trimethoxyflavone

>  <iupac_name>  (119) 
2-(3,4-dimethoxyphenyl)-5,6-dihydroxy-7-methoxy-chromen-4-one

>  <annotation_level>  (119) 
5

>  <total_atom_count>  (119) 
41

>  <heavy_atom_count>  (119) 
25

>  <molecular_weight>  (119) 
344.32

>  <exact_molecular_weight>  (119) 
344.0896

>  <molecular_formula>  (119) 
C18H16O7

>  <alogp>  (119) 
2.90

>  <topological_polar_surface_area>  (119) 
98.36

>  <rotatable_bond_count>  (119) 
4

>  <hydrogen_bond_acceptors>  (119) 
7

>  <hydrogen_bond_donors>  (119) 
2

>  <hydrogen_bond_acceptors_lipinski>  (119) 
7

>  <hydrogen_bond_donors_lipinski>  (119) 
2

>  <lipinski_rule_of_five_violations>  (119) 
0

>  <aromatic_rings_count>  (119) 
3

>  <qed_drug_likeliness>  (119) 
0.70

>  <formal_charge>  (119) 
0

>  <fractioncsp3>  (119) 
0.17

>  <number_of_minimal_rings>  (119) 
3

>  <van_der_walls_volume>  (119) 
289.93

>  <contains_sugar>  (119) 
False

>  <contains_ring_sugars>  (119) 
False

>  <contains_linear_sugars>  (119) 
False

>  <murcko_framework>  (119) 
O1c2ccccc2CC=C1c3ccccc3

>  <np_likeness>  (119) 
0.98

>  <chemical_class>  (119) 
Flavonoids

>  <chemical_sub_class>  (119) 
O-methylated flavonoids

>  <chemical_super_class>  (119) 
Phenylpropanoids and polyketides

>  <direct_parent_classification>  (119) 
3'-O-methylated flavonoids

>  <np_classifier_pathway>  (119) 
Shikimates and Phenylpropanoids

>  <np_classifier_superclass>  (119) 
Flavonoids

>  <np_classifier_class>  (119) 
Flavones

>  <np_classifier_is_glycoside>  (119) 
False

>  <organisms>  (119) 
Artemisia argyi|Calamintha nepeta|Dacryodes normandii|Mentha pulegium|Mentha x piperita|Micromeria spp.|Mulguraea tridens|Ocimum lamiifolium|Origanum onites|Riccia fluitans|Salvia circinata|Salvia sclarea|Salvia syriaca|Satureja thymbra|Thymbra capitata|Thymbra spicata|Thymus piperella

>  <collections>  (119) 
ANPDB|BIOFACQUIM|CMAUP (cCollective molecular activities of useful plants)|FooDB|KNApSaCK|Latin America dataset|NANPDB (Natural Products from Northern African Sources)|NPASS|NPEdia|Super Natural II|TCMID (Traditional Chinese Medicine Integrated Database)|UNPD (Universal Natural Products Database)

>  <dois>  (119) 
10.1016/s0031-9422(97)01042-x|10.1021/acs.jnatprod.7b00155

>  <synonyms>  (119) 
6-Hydroxyluteolin 7|3'|4'-trimethyl ether|SCHEMBL6243500|CHEMBL4127607|LMPK12111240|2-(3 4-dimethoxyphenyl)-5 6-dihydroxy-7-methoxy-4H-chromen-4-one|5|6-dihydroxy-7|3'|4'-trimethoxyflavone

>  <cas>  (119) 
nan

$$$$

     RDKit          2D

 21 23  0  0  0  0  0  0  0  0999 V2000
   -5.1927   -2.0355    0.0000 C   0  0  0  0  0  0  0  0  0  0  0  0
   -3.7027   -1.8624    0.0000 O   0  0  0  0  0  0  0  0  0  0  0  0
   -3.1076   -0.4855    0.0000 C   0  0  0  0  0  0  0  0  0  0  0  0
   -4.0025    0.7183    0.0000 C   0  0  0  0  0  0  0  0  0  0  0  0
   -3.4074    2.0952    0.0000 C   0  0  0  0  0  0  0  0  0  0  0  0
   -4.3022    3.2990    0.0000 O   0  0  0  0  0  0  0  0  0  0  0  0
   -1.9174    2.2683    0.0000 C   0  0  0  0  0  0  0  0  0  0  0  0
   -1.0225    1.0645    0.0000 C   0  0  0  0  0  0  0  0  0  0  0  0
   -1.6176   -0.3124    0.0000 C   0  0  0  0  0  0  0  0  0  0  0  0
   -0.7227   -1.5163    0.0000 C   0  0  0  0  0  0  0  0  0  0  0  0
   -1.3178   -2.8932    0.0000 O   0  0  0  0  0  0  0  0  0  0  0  0
    0.7672   -1.3432    0.0000 C   0  0  0  0  0  0  0  0  0  0  0  0
    1.6621   -2.5470    0.0000 O   0  0  0  0  0  0  0  0  0  0  0  0
    1.3624    0.0337    0.0000 C   0  0  0  0  0  0  0  0  0  0  0  0
    2.8523    0.2068    0.0000 C   0  0  0  0  0  0  0  0  0  0  0  0
    3.7472   -0.9971    0.0000 C   0  0  0  0  0  0  0  0  0  0  0  0
    5.2372   -0.8240    0.0000 C   0  0  0  0  0  0  0  0  0  0  0  0
    5.8323    0.5529    0.0000 C   0  0  0  0  0  0  0  0  0  0  0  0
    4.9374    1.7567    0.0000 C   0  0  0  0  0  0  0  0  0  0  0  0
    3.4474    1.5837    0.0000 C   0  0  0  0  0  0  0  0  0  0  0  0
    0.4675    1.2375    0.0000 O   0  0  0  0  0  0  0  0  0  0  0  0
  1  2  1  0
  2  3  1  0
  3  4  2  0
  4  5  1  0
  5  6  1  0
  5  7  2  0
  7  8  1  0
  8  9  2  0
  9 10  1  0
 10 11  2  0
 10 12  1  0
 12 13  1  1
 12 14  1  0
 14 15  1  6
 15 16  2  0
 16 17  1  0
 17 18  2  0
 18 19  1  0
 19 20  2  0
 14 21  1  0
  9  3  1  0
 20 15  1  0
 21  8  1  0
M  END
>  <identifier>  (120) 
CNP0249967.1

>  <canonical_smiles>  (120) 
COC1=CC(O)=CC2=C1C(=O)[C@H](O)[C@@H](C1=CC=CC=C1)O2

>  <standard_inchi>  (120) 
InChI=1S/C16H14O5/c1-20-11-7-10(17)8-12-13(11)14(18)15(19)16(21-12)9-5-3-2-4-6-9/h2-8,15-17,19H,1H3/t15-,16+/m0/s1

>  <standard_inchi_key>  (120) 
NIMIDMFTGGTHOH-JKSUJKDBSA-N

>  <name>  (120) 
119309-36-3

>  <iupac_name>  (120) 
(2~{R},3~{R})-3,7-dihydroxy-5-methoxy-2-phenyl-chroman-4-one

>  <annotation_level>  (120) 
5

>  <total_atom_count>  (120) 
35

>  <heavy_atom_count>  (120) 
21

>  <molecular_weight>  (120) 
286.28

>  <exact_molecular_weight>  (120) 
286.08412

>  <molecular_formula>  (120) 
C16H14O5

>  <alogp>  (120) 
2.08

>  <topological_polar_surface_area>  (120) 
75.99

>  <rotatable_bond_count>  (120) 
2

>  <hydrogen_bond_acceptors>  (120) 
5

>  <hydrogen_bond_donors>  (120) 
2

>  <hydrogen_bond_acceptors_lipinski>  (120) 
5

>  <hydrogen_bond_donors_lipinski>  (120) 
2

>  <lipinski_rule_of_five_violations>  (120) 
0

>  <aromatic_rings_count>  (120) 
2

>  <qed_drug_likeliness>  (120) 
0.88

>  <formal_charge>  (120) 
0

>  <fractioncsp3>  (120) 
0.19

>  <number_of_minimal_rings>  (120) 
3

>  <van_der_walls_volume>  (120) 
245.78

>  <contains_sugar>  (120) 
False

>  <contains_ring_sugars>  (120) 
False

>  <contains_linear_sugars>  (120) 
False

>  <murcko_framework>  (120) 
O1c2ccccc2CCC1c3ccccc3

>  <np_likeness>  (120) 
2.00

>  <chemical_class>  (120) 
Flavonoids

>  <chemical_sub_class>  (120) 
O-methylated flavonoids

>  <chemical_super_class>  (120) 
Phenylpropanoids and polyketides

>  <direct_parent_classification>  (120) 
5-O-methylated flavonoids

>  <np_classifier_pathway>  (120) 
Shikimates and Phenylpropanoids

>  <np_classifier_superclass>  (120) 
Flavonoids

>  <np_classifier_class>  (120) 
Dihydroflavonols

>  <np_classifier_is_glycoside>  (120) 
False

>  <organisms>  (120) 
Acrocarpia paniculata|Anodendron affine|Apis mellifera|Cedrela salvadorensis|Clathria basilana|Garcinia cambogia|Hertia cheirifolia|Licaria chrysophylla|Mexican Brown Propolis|Mexican propolis|Ormosia hosiei|Ornithoglossum viride|Pertusaria truncata|Petasites laevigatus|Pocillopora eydouxi|Polypodium decumanum|Rubia tetragona|Schizanthus tricolor|Sphaeranthus confertifolius

>  <collections>  (120) 
BIOFACQUIM|CMAUP (cCollective molecular activities of useful plants)|Latin America dataset|NPASS|NPEdia|Super Natural II

>  <dois>  (120) 
10.1021/np900772m|10.3390/molecules23040852

>  <synonyms>  (120) 
Pinobanksin 5-methyl ether|4H-1-Benzopyran-4-one| 2|3-dihydro-3|7-dihydroxy-5-methoxy-2-phenyl-| (2R|3R)-|87620-04-0|(2R|3R)-3|7-dihydroxy-5-methoxy-2-phenyl-2|3-dihydrochromen-4-one|(2R|3R)-3|7-Dihydroxy-5-methoxy-2-phenylchroman-4-one|CHEMBL1096213|DTXSID40922934|(2R|3R)-3|7-dihydroxy-5-methoxy-2-phenyl-3|4-dihydro-2H-1-benzopyran-4-one|HY-N9203|AKOS030552798|CS-0158964|F94019|3|7-Dihydroxy-5-methoxy-2-phenyl-2|3-dihydro-4H-1-benzopyran-4-one

>  <cas>  (120) 
87620-04-0

$$$$

     RDKit          2D

 20 22  0  0  0  0  0  0  0  0999 V2000
   -5.1622   -2.0341    0.0000 C   0  0  0  0  0  0  0  0  0  0  0  0
   -3.6683   -1.8984    0.0000 O   0  0  0  0  0  0  0  0  0  0  0  0
   -3.0389   -0.5369    0.0000 C   0  0  0  0  0  0  0  0  0  0  0  0
   -3.9033    0.6890    0.0000 C   0  0  0  0  0  0  0  0  0  0  0  0
   -3.2739    2.0506    0.0000 C   0  0  0  0  0  0  0  0  0  0  0  0
   -4.1383    3.2764    0.0000 O   0  0  0  0  0  0  0  0  0  0  0  0
   -1.7800    2.1862    0.0000 C   0  0  0  0  0  0  0  0  0  0  0  0
   -0.9156    0.9604    0.0000 C   0  0  0  0  0  0  0  0  0  0  0  0
   -1.5450   -0.4012    0.0000 C   0  0  0  0  0  0  0  0  0  0  0  0
   -0.6806   -1.6271    0.0000 C   0  0  0  0  0  0  0  0  0  0  0  0
   -1.3101   -2.9886    0.0000 O   0  0  0  0  0  0  0  0  0  0  0  0
    0.8132   -1.4914    0.0000 C   0  0  0  0  0  0  0  0  0  0  0  0
    1.4427   -0.1299    0.0000 C   0  0  0  0  0  0  0  0  0  0  0  0
    2.9365    0.0058    0.0000 C   0  0  0  0  0  0  0  0  0  0  0  0
    3.8009   -1.2201    0.0000 C   0  0  0  0  0  0  0  0  0  0  0  0
    5.2948   -1.0844    0.0000 C   0  0  0  0  0  0  0  0  0  0  0  0
    5.9242    0.2771    0.0000 C   0  0  0  0  0  0  0  0  0  0  0  0
    5.0598    1.5030    0.0000 C   0  0  0  0  0  0  0  0  0  0  0  0
    3.5659    1.3674    0.0000 C   0  0  0  0  0  0  0  0  0  0  0  0
    0.5782    1.0960    0.0000 O   0  0  0  0  0  0  0  0  0  0  0  0
  1  2  1  0
  2  3  1  0
  3  4  2  0
  4  5  1  0
  5  6  1  0
  5  7  2  0
  7  8  1  0
  8  9  2  0
  9 10  1  0
 10 11  2  0
 10 12  1  0
 12 13  1  0
 13 14  1  6
 14 15  2  0
 15 16  1  0
 16 17  2  0
 17 18  1  0
 18 19  2  0
 13 20  1  0
  9  3  1  0
 19 14  1  0
 20  8  1  0
M  END
>  <identifier>  (121) 
CNP0239454.1

>  <canonical_smiles>  (121) 
COC1=CC(O)=CC2=C1C(=O)C[C@@H](C1=CC=CC=C1)O2

>  <standard_inchi>  (121) 
InChI=1S/C16H14O4/c1-19-14-7-11(17)8-15-16(14)12(18)9-13(20-15)10-5-3-2-4-6-10/h2-8,13,17H,9H2,1H3/t13-/m0/s1

>  <standard_inchi_key>  (121) 
QQQCWVDPMPFUGF-ZDUSSCGKSA-N

>  <name>  (121) 
Alpinetin

>  <iupac_name>  (121) 
(2~{S})-7-hydroxy-5-methoxy-2-phenyl-chroman-4-one

>  <annotation_level>  (121) 
5

>  <total_atom_count>  (121) 
34

>  <heavy_atom_count>  (121) 
20

>  <molecular_weight>  (121) 
270.28

>  <exact_molecular_weight>  (121) 
270.08921

>  <molecular_formula>  (121) 
C16H14O4

>  <alogp>  (121) 
3.11

>  <topological_polar_surface_area>  (121) 
55.76

>  <rotatable_bond_count>  (121) 
2

>  <hydrogen_bond_acceptors>  (121) 
4

>  <hydrogen_bond_donors>  (121) 
1

>  <hydrogen_bond_acceptors_lipinski>  (121) 
4

>  <hydrogen_bond_donors_lipinski>  (121) 
1

>  <lipinski_rule_of_five_violations>  (121) 
0

>  <aromatic_rings_count>  (121) 
2

>  <qed_drug_likeliness>  (121) 
0.91

>  <formal_charge>  (121) 
0

>  <fractioncsp3>  (121) 
0.19

>  <number_of_minimal_rings>  (121) 
3

>  <van_der_walls_volume>  (121) 
238.90

>  <contains_sugar>  (121) 
False

>  <contains_ring_sugars>  (121) 
False

>  <contains_linear_sugars>  (121) 
False

>  <murcko_framework>  (121) 
O1c2ccccc2CCC1c3ccccc3

>  <np_likeness>  (121) 
1.60

>  <chemical_class>  (121) 
Flavonoids

>  <chemical_sub_class>  (121) 
O-methylated flavonoids

>  <chemical_super_class>  (121) 
Phenylpropanoids and polyketides

>  <direct_parent_classification>  (121) 
5-O-methylated flavonoids

>  <np_classifier_pathway>  (121) 
Shikimates and Phenylpropanoids

>  <np_classifier_superclass>  (121) 
Flavonoids

>  <np_classifier_class>  (121) 
Flavanones

>  <np_classifier_is_glycoside>  (121) 
False

>  <organisms>  (121) 
Aconitum polyschistum|Aerva tomentosa|Alnus spp.|Alpinia chinensis|Alpinia katsumadai|Alpinia mutica|Alpinia pinnanensis|Alpinia spp.|Amorphophallus konjac|Aniba santalodora|Anisocycla cymosa|Artemisia kaschgarica|Ascidia ceratodes|Astragalus circassicus|Astragalus complanatus|Auxarthron reticulatum|Beilschmiedia madang|Beltrania rhombica|Bethencourtia palmensis|Boesenbergia pandurata|Boesenbergia rotunda|Boesenbergia rotunda (LINN.) MANSF.|Boswellia ovalifoliolata|Brassica juncea|Calophyllum teysmannii|Campanula choziatowskyi|Centaurea scoparia|Centaurea sonchifolia|Cereus ocamponis|Colchicum filifolium|Columba livia|Combretum albopunctatum Suesseng|Coptis trifolia|Cordyla africana|Crotalaria barbata|Cynoglossum macrostylum|Dalbergia odorifera|Dalbergia parviflora|Dalea scandens|Dialium excelsum|Drymaria cordata|Dysidea fragilis|Eria bracteata|Erythrina hypaphorus|Erythrophleum fordii|Esox lucius|Etmopterus spinax|Eucalyptus sieberi|Eucalyptus spp.|Eupatorium aschenbornianum|Euphorbia hylonoma|Gaillardia coahuilensis|Garcinia speciosa|Glycosmis parva|Graphis desquamescens|Haminoea cymbalum|Hardenbergia violacea|Helichrysum forskahlii|Helichrysum spp.|Heliotropium scabrum|Helleborus macranthus|Iris kashmiriana|Kaempferia pandurata|Kaempferia spp.|Lactarius mitissimus|Laminaria cloustoni|Lemonia spectabilis|Lepechinia urbanii|Lonchocarpus chiricanus|Lotus arabicus|Maclura cochinchinensis|Matricaria sabulosa|Matsucoccus josephi|Mentzelia decapetala|Mexican Brown Propolis|Mikania micrantha|Mimosa pigra|Monactis macbridei|Morinda elliptica|Mucuna holtonii|Nepytia freemani|Orgyia pseudotsugata|Parmelia springtonensis|Parmotrema nilgherrense|Patrinia intermedia|Pecten caurinus|Petunia axillaris subsp. parodii|Phlegmariurus squarrosus|Piper spp.|Podocarpus dacrydioides|Preussia terricola|Psychotria calocarpa|Pterocaulon serrulatum|Pterodon apparicioi|Pulsatilla chinensis|Quercus marilandica|Rubia akane|Rubus medius|Salix rosmarinifolia|Salvia lavanduloides|Salvia patens|Salvia virgata|Sanango racemosum|Satureja douglasii|Scutellaria amabilis HARA|Scutellaria spp.|Senecio platyphylloides|Sinularia gyrosa|Sphaeria rousseliana|Thalassiosira weissflogii|Ulmus laevis|Vernonia hindei|Xylopia emarginata

>  <collections>  (121) 
Australian natural products|BIOFACQUIM|CMAUP (cCollective molecular activities of useful plants)|KNApSaCK|Latin America dataset|NPASS|Super Natural II|TCMDB-Taiwan (Traditional Chinese Medicine database)|TIPdb (database of Taiwan indigenous plants)|VietHerb|ZINC NP

>  <dois>  (121) 
10.1021/np070286m|10.1071/ch9720449|10.3390/molecules23040852

>  <synonyms>  (121) 
36052-37-6|(S)-7-Hydroxy-5-methoxy-2-phenylchroman-4-one|(-)-alpinetin|(S)-7-Hydroxy-5-methoxyflavanone|5-O-Methylpinocembrin|Alpinetin| (S)-|4H-1-Benzopyran-4-one| 2|3-dihydro-7-hydroxy-5-methoxy-2-phenyl-| (2S)-|(2S)-7-hydroxy-5-methoxy-2-phenyl-2|3-dihydrochromen-4-one|SX3EL59QD8|5-Methoxy-7-hydroxyflavanone|n-Propylether|(S)-ALPINETIN|UNII-SX3EL59QD8|CHEMBL254825|SCHEMBL1460821|HY-N0625A|DTXSID80189620|CHEBI:229049|QQQCWVDPMPFUGF-ZDUSSCGKSA-N|MFCD00238532|s3875|(2S)-7-Hydroxy-5-methoxy-2-phenyl-2|3-dihydro-4H-1-benzopyran-4-one|AKOS015896758|CCG-267158|AC-34711|AS-56086|CS-0016792|A874456|Q-100430|Q4735601|(2S)-2|3-DIHYDRO-7-HYDROXY-5-METHOXY-2-PHENYL-4H-1-BENZOPYRAN-4-ONE|4H-1-BENZOPYRAN-4-ONE| 2|3-DIHYDRO-7-HYDROXY-5-METHOXY-2-PHENYL-| (S)-|Alpinetin|alpinetin

>  <cas>  (121) 
36052-37-6

$$$$

     RDKit          2D

 21 23  0  0  0  0  0  0  0  0999 V2000
   -6.1435   -1.9424    0.0000 C   0  0  0  0  0  0  0  0  0  0  0  0
   -4.6990   -2.3466    0.0000 O   0  0  0  0  0  0  0  0  0  0  0  0
   -3.6267   -1.2977    0.0000 C   0  0  0  0  0  0  0  0  0  0  0  0
   -3.9989    0.1554    0.0000 C   0  0  0  0  0  0  0  0  0  0  0  0
   -2.9266    1.2043    0.0000 C   0  0  0  0  0  0  0  0  0  0  0  0
   -3.2988    2.6574    0.0000 O   0  0  0  0  0  0  0  0  0  0  0  0
   -1.4821    0.8001    0.0000 C   0  0  0  0  0  0  0  0  0  0  0  0
   -0.4098    1.8490    0.0000 C   0  0  0  0  0  0  0  0  0  0  0  0
   -0.7820    3.3021    0.0000 O   0  0  0  0  0  0  0  0  0  0  0  0
    1.0347    1.4448    0.0000 C   0  0  0  0  0  0  0  0  0  0  0  0
    2.1070    2.4937    0.0000 O   0  0  0  0  0  0  0  0  0  0  0  0
    1.4070   -0.0083    0.0000 C   0  0  0  0  0  0  0  0  0  0  0  0
    2.8515   -0.4125    0.0000 C   0  0  0  0  0  0  0  0  0  0  0  0
    3.2237   -1.8655    0.0000 C   0  0  0  0  0  0  0  0  0  0  0  0
    4.6682   -2.2697    0.0000 C   0  0  0  0  0  0  0  0  0  0  0  0
    5.7405   -1.2208    0.0000 C   0  0  0  0  0  0  0  0  0  0  0  0
    5.3683    0.2322    0.0000 C   0  0  0  0  0  0  0  0  0  0  0  0
    3.9238    0.6364    0.0000 C   0  0  0  0  0  0  0  0  0  0  0  0
    0.3347   -1.0572    0.0000 O   0  0  0  0  0  0  0  0  0  0  0  0
   -1.1099   -0.6530    0.0000 C   0  0  0  0  0  0  0  0  0  0  0  0
   -2.1822   -1.7019    0.0000 C   0  0  0  0  0  0  0  0  0  0  0  0
  1  2  1  0
  2  3  1  0
  3  4  2  0
  4  5  1  0
  5  6  1  0
  5  7  2  0
  7  8  1  0
  8  9  2  0
  8 10  1  0
 10 11  1  6
 10 12  1  0
 12 13  1  1
 13 14  2  0
 14 15  1  0
 15 16  2  0
 16 17  1  0
 17 18  2  0
 12 19  1  0
 19 20  1  0
 20 21  2  0
 21  3  1  0
 20  7  1  0
 18 13  1  0
M  END
>  <identifier>  (122) 
CNP0293091.1

>  <canonical_smiles>  (122) 
COC1=CC(O)=C2C(=O)[C@H](O)[C@@H](C3=CC=CC=C3)OC2=C1

>  <standard_inchi>  (122) 
InChI=1S/C16H14O5/c1-20-10-7-11(17)13-12(8-10)21-16(15(19)14(13)18)9-5-3-2-4-6-9/h2-8,15-17,19H,1H3/t15-,16+/m0/s1

>  <standard_inchi_key>  (122) 
QPOCKDYYXFOBCM-JKSUJKDBSA-N

>  <name>  (122) 
(2R,3R)-alpinone

>  <iupac_name>  (122) 
(2~{R},3~{R})-3,5-dihydroxy-7-methoxy-2-phenyl-chroman-4-one

>  <annotation_level>  (122) 
5

>  <total_atom_count>  (122) 
35

>  <heavy_atom_count>  (122) 
21

>  <molecular_weight>  (122) 
286.28

>  <exact_molecular_weight>  (122) 
286.08412

>  <molecular_formula>  (122) 
C16H14O5

>  <alogp>  (122) 
2.08

>  <topological_polar_surface_area>  (122) 
75.99

>  <rotatable_bond_count>  (122) 
2

>  <hydrogen_bond_acceptors>  (122) 
5

>  <hydrogen_bond_donors>  (122) 
2

>  <hydrogen_bond_acceptors_lipinski>  (122) 
5

>  <hydrogen_bond_donors_lipinski>  (122) 
2

>  <lipinski_rule_of_five_violations>  (122) 
0

>  <aromatic_rings_count>  (122) 
2

>  <qed_drug_likeliness>  (122) 
0.88

>  <formal_charge>  (122) 
0

>  <fractioncsp3>  (122) 
0.19

>  <number_of_minimal_rings>  (122) 
3

>  <van_der_walls_volume>  (122) 
245.36

>  <contains_sugar>  (122) 
False

>  <contains_ring_sugars>  (122) 
False

>  <contains_linear_sugars>  (122) 
False

>  <murcko_framework>  (122) 
O1c2ccccc2CCC1c3ccccc3

>  <np_likeness>  (122) 
1.75

>  <chemical_class>  (122) 
Flavonoids

>  <chemical_sub_class>  (122) 
O-methylated flavonoids

>  <chemical_super_class>  (122) 
Phenylpropanoids and polyketides

>  <direct_parent_classification>  (122) 
7-O-methylated flavonoids

>  <np_classifier_pathway>  (122) 
Shikimates and Phenylpropanoids

>  <np_classifier_superclass>  (122) 
Flavonoids

>  <np_classifier_class>  (122) 
Dihydroflavonols

>  <np_classifier_is_glycoside>  (122) 
False

>  <organisms>  (122) 
Acer saccharum|Acrocarpia paniculata|Angelica pancicii|Anodendron affine|Apis mellifera|Argemone aenea|Cedrela salvadorensis|Celastrus kusanoi|Clathria basilana|Cryptostylis fulva|Dalbergia candenatensis|Erythrina subumbrans|Garcinia cambogia|Heliotropium huascoense|Hertia cheirifolia|Licaria chrysophylla|Mexican Brown Propolis|Mexican propolis|Nannizzia gypsea|Ormosia hosiei|Ornithoglossum viride|Pertusaria truncata|Petasites laevigatus|Pinus clausa|Pinus excelsa|Pinus morrisonicola|Piper rugosum|Pocillopora eydouxi|Polypodium decumanum|Psychotria leiocarpa|Roemeria hybrida|Rubia tetragona|Schizanthus tricolor|Sphaeranthus confertifolius|Stephania discolor|Viguiera arenaria|Walsura yunnanensis

>  <collections>  (122) 
BIOFACQUIM|CMAUP (cCollective molecular activities of useful plants)|KNApSaCK|Latin America dataset|NPASS|NPEdia|Super Natural II

>  <dois>  (122) 
10.1021/np900772m|10.3390/molecules23040852

>  <synonyms>  (122) 
CHEMBL1081328|(2R|3R)-3|5-dihydroxy-7-methoxyflavanone|Alpinone|(-)-Alpinone

>  <cas>  (122) 
nan

$$$$

     RDKit          2D

 22 24  0  0  0  0  0  0  0  0999 V2000
   -7.0389    1.6842    0.0000 C   0  0  0  0  0  0  0  0  0  0  0  0
   -6.4052    0.3246    0.0000 O   0  0  0  0  0  0  0  0  0  0  0  0
   -4.9110    0.1935    0.0000 C   0  0  0  0  0  0  0  0  0  0  0  0
   -4.0503    1.4221    0.0000 C   0  0  0  0  0  0  0  0  0  0  0  0
   -2.5561    1.2911    0.0000 C   0  0  0  0  0  0  0  0  0  0  0  0
   -1.9224   -0.0685    0.0000 C   0  0  0  0  0  0  0  0  0  0  0  0
   -0.4282   -0.1995    0.0000 C   0  0  0  0  0  0  0  0  0  0  0  0
    0.2055   -1.5591    0.0000 C   0  0  0  0  0  0  0  0  0  0  0  0
   -0.6551   -2.7877    0.0000 O   0  0  0  0  0  0  0  0  0  0  0  0
    1.6998   -1.6902    0.0000 C   0  0  0  0  0  0  0  0  0  0  0  0
    2.3334   -3.0498    0.0000 O   0  0  0  0  0  0  0  0  0  0  0  0
    2.5604   -0.4616    0.0000 C   0  0  0  0  0  0  0  0  0  0  0  0
    4.0546   -0.5926    0.0000 C   0  0  0  0  0  0  0  0  0  0  0  0
    4.6883   -1.9522    0.0000 O   0  0  0  0  0  0  0  0  0  0  0  0
    4.9152    0.6359    0.0000 C   0  0  0  0  0  0  0  0  0  0  0  0
    4.2816    1.9955    0.0000 C   0  0  0  0  0  0  0  0  0  0  0  0
    5.1422    3.2241    0.0000 O   0  0  0  0  0  0  0  0  0  0  0  0
    2.7873    2.1265    0.0000 C   0  0  0  0  0  0  0  0  0  0  0  0
    1.9267    0.8980    0.0000 C   0  0  0  0  0  0  0  0  0  0  0  0
    0.4325    1.0290    0.0000 O   0  0  0  0  0  0  0  0  0  0  0  0
   -2.7830   -1.2971    0.0000 C   0  0  0  0  0  0  0  0  0  0  0  0
   -4.2773   -1.1660    0.0000 C   0  0  0  0  0  0  0  0  0  0  0  0
  1  2  1  0
  2  3  1  0
  3  4  2  0
  4  5  1  0
  5  6  2  0
  6  7  1  0
  7  8  2  0
  8  9  1  0
  8 10  1  0
 10 11  2  0
 10 12  1  0
 12 13  2  0
 13 14  1  0
 13 15  1  0
 15 16  2  0
 16 17  1  0
 16 18  1  0
 18 19  2  0
 19 20  1  0
  6 21  1  0
 21 22  2  0
 22  3  1  0
 20  7  1  0
 19 12  1  0
M  END
>  <identifier>  (123) 
CNP0291526.0

>  <canonical_smiles>  (123) 
COC1=CC=C(C2=C(O)C(=O)C3=C(O)C=C(O)C=C3O2)C=C1

>  <standard_inchi>  (123) 
InChI=1S/C16H12O6/c1-21-10-4-2-8(3-5-10)16-15(20)14(19)13-11(18)6-9(17)7-12(13)22-16/h2-7,17-18,20H,1H3

>  <standard_inchi_key>  (123) 
SQFSKOYWJBQGKQ-UHFFFAOYSA-N

>  <name>  (123) 
Kaempferide

>  <iupac_name>  (123) 
3,5,7-trihydroxy-2-(4-methoxyphenyl)chromen-4-one

>  <annotation_level>  (123) 
5

>  <total_atom_count>  (123) 
34

>  <heavy_atom_count>  (123) 
22

>  <molecular_weight>  (123) 
300.27

>  <exact_molecular_weight>  (123) 
300.06339

>  <molecular_formula>  (123) 
C16H12O6

>  <alogp>  (123) 
2.59

>  <topological_polar_surface_area>  (123) 
100.13

>  <rotatable_bond_count>  (123) 
2

>  <hydrogen_bond_acceptors>  (123) 
6

>  <hydrogen_bond_donors>  (123) 
3

>  <hydrogen_bond_acceptors_lipinski>  (123) 
6

>  <hydrogen_bond_donors_lipinski>  (123) 
3

>  <lipinski_rule_of_five_violations>  (123) 
0

>  <aromatic_rings_count>  (123) 
3

>  <qed_drug_likeliness>  (123) 
0.67

>  <formal_charge>  (123) 
0

>  <fractioncsp3>  (123) 
0.06

>  <number_of_minimal_rings>  (123) 
3

>  <van_der_walls_volume>  (123) 
247.18

>  <contains_sugar>  (123) 
False

>  <contains_ring_sugars>  (123) 
False

>  <contains_linear_sugars>  (123) 
False

>  <murcko_framework>  (123) 
O1c2ccccc2CC=C1c3ccccc3

>  <np_likeness>  (123) 
1.31

>  <chemical_class>  (123) 
Flavonoids

>  <chemical_sub_class>  (123) 
Flavones

>  <chemical_super_class>  (123) 
Phenylpropanoids and polyketides

>  <direct_parent_classification>  (123) 
Flavonols

>  <np_classifier_pathway>  (123) 
Shikimates and Phenylpropanoids

>  <np_classifier_superclass>  (123) 
Flavonoids

>  <np_classifier_class>  (123) 
Flavonols

>  <np_classifier_is_glycoside>  (123) 
False

>  <organisms>  (123) 
Aconitum contortum|Acrocarpia paniculata|Aesculus turbinata|Agardhiella tenera|Ageratum mexicanum|Alnus alnobetula|Alpinia galanga|Alpinia officinarum|Alpinia oxyphylla|Alpinia zerumbet|Alstonia spectabilis|Amomum longiligulare|Amomum villosum|Amomum xanthioides|Anodendron affine|Anthemis altissima|Apis mellifera|Argyreia speciosa|Arnica parryi|Artemisia annua L.|Artemisia apiacea|Artocarpus styracifolius|Astragalus complanatus|Baccharis pilularis|Baccharis viminea|Bacillus litoralis|Bombus terrestris|Brazilian propolis|Buxus hildebrandtii|Cacumen tamaricis|Calceolaria irazeunsis|Callicarpa acuminata|Callistemon coccineus|Capsella bursa|Capsella bursa-pastoris|Cedrela salvadorensis|Cestrum nocturnum|Chondodendron toxicoferum|Chrysothamnus nauseosus|Citrus aurantium|Clathria basilana|Costus spicatus|Cotinus coggygria|Crocus sativus|Croton geayi|Currania robertiana|Dacrydium intermedium|Dalbergia nitidula|Dickeya chrysanthemi|Dodonaea viscosa|Dorstenia mannii|Drypetes tessmanniana|Echinacea simulata|Eremurus chinensis|Eriodictyon sessilifolium|Escontria chiotilla|Eucryphia|Eucryphia cordifolia|Eucryphia jinksii|Forsythia giraldiana|Garcinia cambogia|Gardenia ternifolia|Genista aetnensis|Gratiola officinalis|Grindelia discoidea|Hemiselmis virescens|Hertia cheirifolia|Heterotheca grandiflora|Holothuria atra|Humulus japonicus|Hylotrupes bajulus|Hypericum reptans|Justicia betonica|Kadsura peltigera|Kaempferia galanga|Kalanchoe spathulata|Kniphofia foliosa|Koelreuteria henryi|Krameria parvifolia|Laurencia nidifica|Lecanora coniza|Licaria chrysophylla|Linaria dalmatica|Methanosarcina barkeri|Mexican Brown Propolis|Mirabilis viscosa|Neolitsea villosa|Nonomuraea dietziae|Nothofagus menziesii|Nothofagus nervosa|Ophiocordyceps heteropoda|Ormosia hosiei|Ornithoglossum viride|Ozothamnus scutellifolius|Pachygone dasycarpa|Pertusaria truncata|Petasites laevigatus|Petunia nyctaginiflora|Phyllidiella pustulosa|Piper kadsura|Pocillopora eydouxi|Polypodium decumanum|Pteryxia terebinthina|Rhizophora tagal|Rosa laevigata|Rubia tetragona|Rubus laciniatus|Salvia lavandulifolia|Saussurea salicifolia|Schizanthus tricolor|Sedum lineare|Sedum sarmentosum|Semecarpus vitiensis|Sphaeranthus confertifolius|Stenocarpella maydis|Streptomyces corchorusii|Streptomyces griseolus|Streptomyces ramocissimus|Strychnos amazonica|Swertia chinensis|Tamarix chinensis|Tsitsikamma favus|Uncaria africana|Uvaria lucida|Vernonia profuga|Viguiera pinnatilobata|Vladimiria muliensis|Zebrina pendula|aplinia officinarum|brazilian green propolis

>  <collections>  (123) 
ANPDB|AnalytiCon Discovery NPs|Australian natural products|BIOFACQUIM|CMAUP (cCollective molecular activities of useful plants)|ChEBI NPs|ConMedNP|ETM (Ethiopian Traditional Medicine) DB|FooDB|GNPS (Global Natural Products Social Molecular Networking)|HIM (Herbal Ingredients in-vivo Metabolism database)|KNApSaCK|Latin America dataset|NANPDB (Natural Products from Northern African Sources)|NPACT|NPASS|NPCARE|NPEdia|Phenol-explorer|Phyto4Health|ReSpect|SANCDB|Super Natural II|TCMDB-Taiwan (Traditional Chinese Medicine database)|TCMID (Traditional Chinese Medicine Integrated Database)|TIPdb (database of Taiwan indigenous plants)|UNPD (Universal Natural Products Database)|VietHerb

>  <dois>  (123) 
10.1002/cbdv.201300266|10.1016/j.bmc.2009.06.057|10.1016/j.bmc.2011.07.060|10.1016/j.sajb.2009.06.010|10.1016/s0031-9422(00)83141-6|10.1016/s0305-1978(99)00045-9|10.1021/np020099i|10.1021/np020472m|10.1021/np50096a027|10.1021/np980028c|10.1093/pcp/pcn183|10.3390/molecules20047143|10.3390/molecules23040852|10.3390/molecules27061860

>  <synonyms>  (123) 
491-54-3|Kaempferid|4'-Methylkaempferol|Kaempferol 4'-methyl ether|3|5|7-Trihydroxy-2-(4-methoxyphenyl)-4H-chromen-4-one|Campheride|4H-1-Benzopyran-4-one| 3|5|7-trihydroxy-2-(4-methoxyphenyl)-|5|7-Dihydroxy-4'-methoxyflavonol|4'-Methoxy-3|5|7-trihydroxyflavone|NSC 407294|KAMPFERIDE|3|5|7-Trihydroxy-2-(4-methoxyphenyl)-4-benzopyrone|CHEMBL40919|508XL61MPD|CHEBI:6099|FLAVANONE| 4'-METHOXY-3|5|7-TRIHYDROXY-|EINECS 207-738-4|BRN 0305378|UNII-508XL61MPD|Flavone| 3|5|7-trihydroxy-4'-methoxy-|Kaempferide (AS)|3 5 7-trihydroxy-4'-methoxyflavone|5-18-05-00253 (Beilstein Handbook Reference)|SCHEMBL426774|Kaempferide| analytical standard|DTXSID9034155|AMY5862|HMS3746E09|BCP20573|BDBM50084978|LMPK12110563|MFCD00016771|s3879|AKOS015903441|3|5|7-Trihydroxy-4'-methoxy-Flavone|CCG-267464|CS-0957|NCGC00379085-03|1ST40132|AC-30805|BS-16895|HY-15449|K0057|NS00031862|WLN: T66 BO EVJ CR DO1& DQ GQ IQ|A827662|Q3116775|3|5|7-Trihydroxy-2-(4-methoxyphenyl)-4H-1-benzopyran-4-one| 9CI|kaempferide

>  <cas>  (123) 
491-54-3

$$$$

     RDKit          2D

 21 23  0  0  0  0  0  0  0  0999 V2000
   -5.1927   -2.0355    0.0000 C   0  0  0  0  0  0  0  0  0  0  0  0
   -3.7027   -1.8624    0.0000 O   0  0  0  0  0  0  0  0  0  0  0  0
   -3.1076   -0.4855    0.0000 C   0  0  0  0  0  0  0  0  0  0  0  0
   -4.0025    0.7183    0.0000 C   0  0  0  0  0  0  0  0  0  0  0  0
   -3.4074    2.0952    0.0000 C   0  0  0  0  0  0  0  0  0  0  0  0
   -4.3022    3.2990    0.0000 O   0  0  0  0  0  0  0  0  0  0  0  0
   -1.9174    2.2683    0.0000 C   0  0  0  0  0  0  0  0  0  0  0  0
   -1.0225    1.0645    0.0000 C   0  0  0  0  0  0  0  0  0  0  0  0
   -1.6176   -0.3124    0.0000 C   0  0  0  0  0  0  0  0  0  0  0  0
   -0.7227   -1.5163    0.0000 C   0  0  0  0  0  0  0  0  0  0  0  0
   -1.3178   -2.8932    0.0000 O   0  0  0  0  0  0  0  0  0  0  0  0
    0.7672   -1.3432    0.0000 C   0  0  0  0  0  0  0  0  0  0  0  0
    1.6621   -2.5470    0.0000 O   0  0  0  0  0  0  0  0  0  0  0  0
    1.3624    0.0337    0.0000 C   0  0  0  0  0  0  0  0  0  0  0  0
    2.8523    0.2068    0.0000 C   0  0  0  0  0  0  0  0  0  0  0  0
    3.7472   -0.9971    0.0000 C   0  0  0  0  0  0  0  0  0  0  0  0
    5.2372   -0.8240    0.0000 C   0  0  0  0  0  0  0  0  0  0  0  0
    5.8323    0.5529    0.0000 C   0  0  0  0  0  0  0  0  0  0  0  0
    4.9374    1.7567    0.0000 C   0  0  0  0  0  0  0  0  0  0  0  0
    3.4474    1.5837    0.0000 C   0  0  0  0  0  0  0  0  0  0  0  0
    0.4675    1.2375    0.0000 O   0  0  0  0  0  0  0  0  0  0  0  0
  1  2  1  0
  2  3  1  0
  3  4  2  0
  4  5  1  0
  5  6  1  0
  5  7  2  0
  7  8  1  0
  8  9  2  0
  9 10  1  0
 10 11  2  0
 10 12  1  0
 12 13  1  0
 12 14  2  0
 14 15  1  0
 15 16  2  0
 16 17  1  0
 17 18  2  0
 18 19  1  0
 19 20  2  0
 14 21  1  0
  9  3  1  0
 20 15  1  0
 21  8  1  0
M  END
>  <identifier>  (124) 
CNP0145877.0

>  <canonical_smiles>  (124) 
COC1=CC(O)=CC2=C1C(=O)C(O)=C(C1=CC=CC=C1)O2

>  <standard_inchi>  (124) 
InChI=1S/C16H12O5/c1-20-11-7-10(17)8-12-13(11)14(18)15(19)16(21-12)9-5-3-2-4-6-9/h2-8,17,19H,1H3

>  <standard_inchi_key>  (124) 
LDRJANCOJOKOPS-UHFFFAOYSA-N

>  <name>  (124) 
Galangin-5-methylether

>  <iupac_name>  (124) 
3,7-dihydroxy-5-methoxy-2-phenyl-chromen-4-one

>  <annotation_level>  (124) 
5

>  <total_atom_count>  (124) 
33

>  <heavy_atom_count>  (124) 
21

>  <molecular_weight>  (124) 
284.27

>  <exact_molecular_weight>  (124) 
284.06847

>  <molecular_formula>  (124) 
C16H12O5

>  <alogp>  (124) 
2.88

>  <topological_polar_surface_area>  (124) 
79.90

>  <rotatable_bond_count>  (124) 
2

>  <hydrogen_bond_acceptors>  (124) 
5

>  <hydrogen_bond_donors>  (124) 
2

>  <hydrogen_bond_acceptors_lipinski>  (124) 
5

>  <hydrogen_bond_donors_lipinski>  (124) 
2

>  <lipinski_rule_of_five_violations>  (124) 
0

>  <aromatic_rings_count>  (124) 
3

>  <qed_drug_likeliness>  (124) 
0.76

>  <formal_charge>  (124) 
0

>  <fractioncsp3>  (124) 
0.06

>  <number_of_minimal_rings>  (124) 
3

>  <van_der_walls_volume>  (124) 
238.22

>  <contains_sugar>  (124) 
False

>  <contains_ring_sugars>  (124) 
False

>  <contains_linear_sugars>  (124) 
False

>  <murcko_framework>  (124) 
O1c2ccccc2CC=C1c3ccccc3

>  <np_likeness>  (124) 
1.36

>  <chemical_class>  (124) 
Flavonoids

>  <chemical_sub_class>  (124) 
Flavones

>  <chemical_super_class>  (124) 
Phenylpropanoids and polyketides

>  <direct_parent_classification>  (124) 
Flavonols

>  <np_classifier_pathway>  (124) 
Shikimates and Phenylpropanoids

>  <np_classifier_superclass>  (124) 
Flavonoids

>  <np_classifier_class>  (124) 
Flavonols

>  <np_classifier_is_glycoside>  (124) 
False

>  <organisms>  (124) 
Acantholimon glumaceum|Alternaria porri|Annulohypoxylon multiforme|Cephalotaxus fortunei|Clematis delavayi|Cupania latifolia|Helleborus purpurascens|Impatiens roylei|Juniperus californica|Kunzea ambigua|Lespedeza capitata|Manilkara bidentata|Mexican Brown Propolis|Nidorella resedifolia|Notholaena ekmanii|Panax vietnamensis|Petromyzon marinus|Phonus arborescens|Pityrogramma triangularis|Platyzoma microphyllum|Populus gemma|Scutellaria cordifrons|Smilax aspera|Stachys anisochila|Tabernaemontana amygdalifolia|Trichosanthes dioica

>  <collections>  (124) 
BIOFACQUIM|CMAUP (cCollective molecular activities of useful plants)|KNApSaCK|Latin America dataset|NPASS|NPEdia|Super Natural II|UNPD (Universal Natural Products Database)

>  <dois>  (124) 
10.3390/molecules23040852

>  <synonyms>  (124) 
104594-69-6|Galangin 5-methyl ether|3|7-dihydroxy-5-methoxy-2-phenylchromen-4-one|SCHEMBL5133662|DTXSID90146603|LMPK12111655

>  <cas>  (124) 
104594-69-6

$$$$

     RDKit          2D

 20 22  0  0  0  0  0  0  0  0999 V2000
   -5.9818   -1.9954    0.0000 C   0  0  0  0  0  0  0  0  0  0  0  0
   -4.5259   -2.3567    0.0000 O   0  0  0  0  0  0  0  0  0  0  0  0
   -3.4851   -1.2766    0.0000 C   0  0  0  0  0  0  0  0  0  0  0  0
   -3.9001    0.1649    0.0000 C   0  0  0  0  0  0  0  0  0  0  0  0
   -2.8593    1.2450    0.0000 C   0  0  0  0  0  0  0  0  0  0  0  0
   -3.2743    2.6864    0.0000 O   0  0  0  0  0  0  0  0  0  0  0  0
   -1.4035    0.8837    0.0000 C   0  0  0  0  0  0  0  0  0  0  0  0
   -0.3626    1.9638    0.0000 C   0  0  0  0  0  0  0  0  0  0  0  0
   -0.7777    3.4053    0.0000 O   0  0  0  0  0  0  0  0  0  0  0  0
    1.0932    1.6025    0.0000 C   0  0  0  0  0  0  0  0  0  0  0  0
    1.5082    0.1611    0.0000 C   0  0  0  0  0  0  0  0  0  0  0  0
    2.9640   -0.2002    0.0000 C   0  0  0  0  0  0  0  0  0  0  0  0
    3.3791   -1.6417    0.0000 C   0  0  0  0  0  0  0  0  0  0  0  0
    4.8349   -2.0030    0.0000 C   0  0  0  0  0  0  0  0  0  0  0  0
    5.8757   -0.9229    0.0000 C   0  0  0  0  0  0  0  0  0  0  0  0
    5.4607    0.5186    0.0000 C   0  0  0  0  0  0  0  0  0  0  0  0
    4.0049    0.8799    0.0000 C   0  0  0  0  0  0  0  0  0  0  0  0
    0.4674   -0.9191    0.0000 O   0  0  0  0  0  0  0  0  0  0  0  0
   -0.9885   -0.5578    0.0000 C   0  0  0  0  0  0  0  0  0  0  0  0
   -2.0293   -1.6379    0.0000 C   0  0  0  0  0  0  0  0  0  0  0  0
  1  2  1  0
  2  3  1  0
  3  4  2  0
  4  5  1  0
  5  6  1  0
  5  7  2  0
  7  8  1  0
  8  9  2  0
  8 10  1  0
 10 11  1  0
 11 12  1  1
 12 13  2  0
 13 14  1  0
 14 15  2  0
 15 16  1  0
 16 17  2  0
 11 18  1  0
 18 19  1  0
 19 20  2  0
 20  3  1  0
 19  7  1  0
 17 12  1  0
M  END
>  <identifier>  (125) 
CNP0280813.1

>  <canonical_smiles>  (125) 
COC1=CC(O)=C2C(=O)C[C@@H](C3=CC=CC=C3)OC2=C1

>  <standard_inchi>  (125) 
InChI=1S/C16H14O4/c1-19-11-7-12(17)16-13(18)9-14(20-15(16)8-11)10-5-3-2-4-6-10/h2-8,14,17H,9H2,1H3/t14-/m0/s1

>  <standard_inchi_key>  (125) 
ORJDDOBAOGKRJV-AWEZNQCLSA-N

>  <name>  (125) 
Pinostrobin

>  <iupac_name>  (125) 
(2~{S})-5-hydroxy-7-methoxy-2-phenyl-chroman-4-one

>  <annotation_level>  (125) 
5

>  <total_atom_count>  (125) 
34

>  <heavy_atom_count>  (125) 
20

>  <molecular_weight>  (125) 
270.28

>  <exact_molecular_weight>  (125) 
270.08921

>  <molecular_formula>  (125) 
C16H14O4

>  <alogp>  (125) 
3.11

>  <topological_polar_surface_area>  (125) 
55.76

>  <rotatable_bond_count>  (125) 
2

>  <hydrogen_bond_acceptors>  (125) 
4

>  <hydrogen_bond_donors>  (125) 
1

>  <hydrogen_bond_acceptors_lipinski>  (125) 
4

>  <hydrogen_bond_donors_lipinski>  (125) 
1

>  <lipinski_rule_of_five_violations>  (125) 
0

>  <aromatic_rings_count>  (125) 
2

>  <qed_drug_likeliness>  (125) 
0.91

>  <formal_charge>  (125) 
0

>  <fractioncsp3>  (125) 
0.19

>  <number_of_minimal_rings>  (125) 
3

>  <van_der_walls_volume>  (125) 
238.17

>  <contains_sugar>  (125) 
False

>  <contains_ring_sugars>  (125) 
False

>  <contains_linear_sugars>  (125) 
False

>  <murcko_framework>  (125) 
O1c2ccccc2CCC1c3ccccc3

>  <np_likeness>  (125) 
1.33

>  <chemical_class>  (125) 
Flavonoids

>  <chemical_sub_class>  (125) 
O-methylated flavonoids

>  <chemical_super_class>  (125) 
Phenylpropanoids and polyketides

>  <direct_parent_classification>  (125) 
7-O-methylated flavonoids

>  <np_classifier_pathway>  (125) 
Shikimates and Phenylpropanoids

>  <np_classifier_superclass>  (125) 
Flavonoids

>  <np_classifier_class>  (125) 
Flavanones

>  <np_classifier_is_glycoside>  (125) 
False

>  <organisms>  (125) 
Aaptos ciliata|Abies excelsa|Abies pinsapo var. marocana|Acer saccharum|Achlya heterosexualis|Aconitum variegatum|Acrocarpia paniculata|Alpinia katsumadai|Alternaria macrospora|Amorphophallus konjac|Ampelocera edentula|Andira retusa|Angelica acutiloba|Angelica pancicii|Aniba riparia|Aniba santalodora|Anodendron affine|Apis mellifera|Aplidium solidum|Aralia hispida|Argemone aenea|Arnica mollis|Astragalus circassicus|Baeckea frutescens|Balanophora polyandra|Beilschmiedia madang|Bethencourtia palmensis|Boesenbergia pandurata|Boswellia ovalifoliolata|Botrytis cinerea|Brassica carinata|Bryonia alba|Cajanus cajan|Campanula choziatowskyi|Carpha glomerata|Cedrela salvadorensis|Celastrus kusanoi|Centaurea scoparia|Centaurea sonchifolia|Cheilanthes fragrans|Chenopodiastrum murale|Chenopodium quinoa|Chrysosporum ovalisporum|Citrus medica|Clathria basilana|Colchicum filifolium|Coprosma foetidissima|Croton gratissimus|Cryptocarya chinensis|Cryptostylis fulva|Cyanostegia angustifolia|Cynoglossum macrostylum|Cyttaria johowii|Dactylorhiza viridis|Dalbergia odorifera|Davidsonia pruriens|Dialium excelsum|Diplopterygium glaucum|Drymaria cordata|Dysidea fragilis|Dyssodia anthemidifolia|Eremophila exotrachys|Eriocephalus kingesii|Erythrina hypaphorus|Erythrina subumbrans|Esox lucius|Etmopterus spinax|Eucalyptus regnans|Eucalyptus resinifera|Euphorbia hylonoma|Euphrasia genargentea|Eurycoma harmandiana|Fadogia agrestis|Fusarium striatum|Gaillardia coahuilensis|Garcinia cambogia|Geranium collinum|Girgensohnia oppositiflora|Gonotheca helianthoides|Halobacillus litoralis|Haplopappus remyanus|Hardenbergia violacea|Harpullia cupanioides|Heliotropium scabrum|Helleborus macranthus|Hertia cheirifolia|Hypocrella bambusae|Iris kashmiriana|Isodon eriocalyx|Ixeris debilis|Kaempferia pandurata|Lactarius mitissimus|Laggera pterodonta|Leguminosae|Lemonia spectabilis|Lepechinia urbanii|Lespedeza maximowiczi|Licaria chrysophylla|Lilium rubrum|Lobelia syphilitica|Lobophytum durum|Lonchocarpus chiricanus|Lychnophora pinaster|Lysastrosoma anthosticta|Lysimachia fordiana|Maclura cochinchinensis|Magnolia laevifolia|Marasmiellus troyanus|Marrubium parviflorum|Matricaria sabulosa|Matsucoccus josephi|Maytenus chuchuhuasha|Mentzelia decapetala|Mexican Brown Propolis|Mexican propolis|Microglossa pyrifolia|Mimosa pigra|Mucuna holtonii|Mycobacterium avium|Nannizzia gypsea|Nepytia freemani|Odixia angusta|Orgyia pseudotsugata|Ormosia hosiei|Ornithoglossum viride|Orthosiphon spicatus|Ostrya carpinifolia|Oxytropis falcata|Padina tetrastromatica|Panicum crus-galli|Parmotrema nilgherrense|Parthenium confertum|Pertusaria truncata|Petasites laevigatus|Petunia axillaris subsp. parodii|Phymatopteris hastata|Pinus clausa|Pinus morrisonicola|Piper rugosum|Pocillopora eydouxi|Podocarpus dacrydioides|Polygonatum polyanthemum|Polypodium decumanum|Preussia terricola|Psathyrotes ramosissima|Psychotria leiocarpa|Pterocaulon serrulatum|Pterolobium hexapetalum|Pulsatilla chinensis|Pyropolyporus fomentarius|Quercus marilandica|Ranunculus asiaticus|Remirea maritima|Renealmia nicolaioides|Roemeria hybrida|Rubia akane|Rubia tetragona|Salix rosmarinifolia|Salvia lavanduloides|Salvia patens|Salvia virgata|Sarcandra glabra|Schizanthus tricolor|Schizophyllum lobatum|Scleropyrum wallichianum|Senecio platyphylloides|Sinapis alba|Solanum lanceolatum|Sphaeranthus confertifolius|Sphaerechinus granularis|Sphaeria rousseliana|Stephania dielsiana|Stephania discolor|Streptomyces graminofaciens|Streptomyces matensis|Tephrosia elata|Thalassiosira weissflogii|Trididemnum cyanophorum|Trifolium diffusum|Veretillum cynomorium|Veronica stricta|Viburnum erubescens|Viguiera arenaria|Walsura yunnanensis|Wikstroemia viridiflora|Xanthorhiza simplicissima|Xylopia emarginata|Youngia japonica|Zanthoxylum ocumarense|Zingiber officinale|chinese propolis

>  <collections>  (125) 
AfroCancer|AfroMalariaDB|Australian natural products|BIOFACQUIM|CMAUP (cCollective molecular activities of useful plants)|ChEBI NPs|ConMedNP|ETM (Ethiopian Traditional Medicine) DB|InflamNat|Latin America dataset|NPASS|NuBBEDB|Phyto4Health|Super Natural II|TIPdb (database of Taiwan indigenous plants)|ZINC NP

>  <dois>  (125) 
10.1007/978-1-4613-4151-2_9|10.1016/0305-1978(78)90024-8|10.1016/j.bmc.2009.02.050|10.1016/j.bmcl.2013.04.032|10.1016/j.indcrop.2019.01.050|10.1016/j.phymed.2014.02.011|10.1021/np010486c|10.1021/np020249p|10.1021/np070286m|10.1021/np100014j|10.1021/np900772m|10.1055/a-0626-7356|10.1071/ch9862111|10.1515/znc-1997-9-1003|10.3390/molecules23040852

>  <synonyms>  (125) 
480-37-5|Pinostrombin|dihydrotectochrysin|(-)-pinostrobin|Pinocembrin-7-methylether|5-hydroxy-7-methoxy-2-phenylchroman-4-one|SZD9LZS694|CHEMBL254613|CHEBI:80491|(2s)-5-hydroxy-7-methoxyflavanone|5-Hydroxy-7-methoxy-2-phenyl-2|3-dihydro-4H-chromen-4-one|4H-1-Benzopyran-4-one| 2|3-dihydro-5-hydroxy-7-methoxy-2-phenyl-| (S)-|(S)-2|3-Dihydro-5-hydroxy-7-methoxy-2-phenyl-4-benzopyrone|7-METHYLPINOCEMBRIN|UNII-SZD9LZS694|(-)-2S-PINOCEMBRIN|SCHEMBL7648566|DTXSID50963979|ORJDDOBAOGKRJV-AWEZNQCLSA-N|PINOCEMBRIN 7-METHYL ETHER|Pinostrobin| >=99.0% (TLC)|HY-N2127|EINECS 207-548-1|BDBM50338968|AKOS037515398|CCG-262304|FLAVANONE| 5-HYDROXY-7-METHOXY-|NCGC00163610-01|MS-23823|CS-0018678|NS00124152|E87161|SR-05000013704|Q27149542|5-Hydroxy-7-methoxy-2-phenyl-2|3-dihydro-4H-1-benzopyran-4-one|(2S)-2|3-DIHYDRO-5-HYDROXY-7-METHOXY-2-PHENYL-4H-1-BENZOPYRAN-4-ONE|4H-1-BENZOPYRAN-4-ONE| 2|3-DIHYDRO-5-HYDROXY-7-METHOXY-2-PHENYL-| (2S)-|Leguminosae|(2S)-pinostrombin| Pinocembrin-7-methyl ether| (2S)-5-hydroxy-7-methoxyflavanone|pinostrobin

>  <cas>  (125) 
480-37-5

$$$$

     RDKit          2D

 42 46  0  0  0  0  0  0  0  0999 V2000
    3.3903   -5.1080    0.0000 C   0  0  0  0  0  0  0  0  0  0  0  0
    4.6774   -4.3376    0.0000 O   0  0  0  0  0  0  0  0  0  0  0  0
    4.6537   -2.8378    0.0000 C   0  0  0  0  0  0  0  0  0  0  0  0
    3.3431   -2.1083    0.0000 C   0  0  0  0  0  0  0  0  0  0  0  0
    3.3194   -0.6085    0.0000 C   0  0  0  0  0  0  0  0  0  0  0  0
    2.0088    0.1209    0.0000 O   0  0  0  0  0  0  0  0  0  0  0  0
    0.7217   -0.6494    0.0000 C   0  0  0  0  0  0  0  0  0  0  0  0
   -0.5890    0.0800    0.0000 O   0  0  0  0  0  0  0  0  0  0  0  0
   -1.8761   -0.6903    0.0000 C   0  0  0  0  0  0  0  0  0  0  0  0
   -3.1867    0.0391    0.0000 C   0  0  0  0  0  0  0  0  0  0  0  0
   -4.4738   -0.7312    0.0000 O   0  0  0  0  0  0  0  0  0  0  0  0
   -5.7845   -0.0018    0.0000 C   0  0  0  0  0  0  0  0  0  0  0  0
   -5.8081    1.4980    0.0000 O   0  0  0  0  0  0  0  0  0  0  0  0
   -7.1188    2.2275    0.0000 C   0  0  0  0  0  0  0  0  0  0  0  0
   -8.4059    1.4571    0.0000 C   0  0  0  0  0  0  0  0  0  0  0  0
   -9.7166    2.1866    0.0000 O   0  0  0  0  0  0  0  0  0  0  0  0
   -8.3823   -0.0427    0.0000 C   0  0  0  0  0  0  0  0  0  0  0  0
   -9.6693   -0.8131    0.0000 O   0  0  0  0  0  0  0  0  0  0  0  0
   -7.0716   -0.7721    0.0000 C   0  0  0  0  0  0  0  0  0  0  0  0
   -7.0480   -2.2720    0.0000 O   0  0  0  0  0  0  0  0  0  0  0  0
   -1.8524   -2.1902    0.0000 C   0  0  0  0  0  0  0  0  0  0  0  0
   -3.1395   -2.9605    0.0000 O   0  0  0  0  0  0  0  0  0  0  0  0
   -0.5418   -2.9196    0.0000 C   0  0  0  0  0  0  0  0  0  0  0  0
   -0.5181   -4.4194    0.0000 O   0  0  0  0  0  0  0  0  0  0  0  0
    0.7453   -2.1492    0.0000 C   0  0  0  0  0  0  0  0  0  0  0  0
    2.0560   -2.8787    0.0000 O   0  0  0  0  0  0  0  0  0  0  0  0
    4.6065    0.1618    0.0000 C   0  0  0  0  0  0  0  0  0  0  0  0
    4.5829    1.6616    0.0000 C   0  0  0  0  0  0  0  0  0  0  0  0
    3.2722    2.3911    0.0000 C   0  0  0  0  0  0  0  0  0  0  0  0
    3.2486    3.8909    0.0000 C   0  0  0  0  0  0  0  0  0  0  0  0
    1.9379    4.6204    0.0000 C   0  0  0  0  0  0  0  0  0  0  0  0
    0.6508    3.8500    0.0000 C   0  0  0  0  0  0  0  0  0  0  0  0
   -0.6598    4.5795    0.0000 O   0  0  0  0  0  0  0  0  0  0  0  0
    0.6745    2.3502    0.0000 C   0  0  0  0  0  0  0  0  0  0  0  0
   -0.6126    1.5798    0.0000 O   0  0  0  0  0  0  0  0  0  0  0  0
    1.9851    1.6207    0.0000 C   0  0  0  0  0  0  0  0  0  0  0  0
    5.8700    2.4320    0.0000 C   0  0  0  0  0  0  0  0  0  0  0  0
    7.1807    1.7026    0.0000 C   0  0  0  0  0  0  0  0  0  0  0  0
    8.4677    2.4729    0.0000 O   0  0  0  0  0  0  0  0  0  0  0  0
    7.2043    0.2027    0.0000 O   0  0  0  0  0  0  0  0  0  0  0  0
    5.9172   -0.5676    0.0000 C   0  0  0  0  0  0  0  0  0  0  0  0
    5.9408   -2.0674    0.0000 C   0  0  0  0  0  0  0  0  0  0  0  0
  1  2  1  0
  2  3  1  0
  3  4  2  0
  4  5  1  0
  5  6  1  0
  7  6  1  1
  7  8  1  0
  8  9  1  0
  9 10  1  1
 10 11  1  0
 12 11  1  1
 12 13  1  0
 13 14  1  0
 14 15  1  0
 15 16  1  6
 15 17  1  0
 17 18  1  1
 17 19  1  0
 19 20  1  6
  9 21  1  0
 21 22  1  6
 21 23  1  0
 23 24  1  1
 23 25  1  0
 25 26  1  6
  5 27  2  0
 27 28  1  0
 28 29  1  0
 29 30  2  0
 30 31  1  0
 31 32  2  0
 32 33  1  0
 32 34  1  0
 34 35  1  0
 34 36  2  0
 28 37  2  0
 37 38  1  0
 38 39  2  0
 38 40  1  0
 40 41  1  0
 41 42  2  0
 42  3  1  0
 25  7  1  0
 41 27  1  0
 19 12  1  0
 36 29  1  0
M  END
>  <identifier>  (126) 
CNP0349859.1

>  <canonical_smiles>  (126) 
COC1=CC(O[C@@H]2O[C@H](CO[C@@H]3OC[C@@H](O)[C@H](O)[C@H]3O)[C@@H](O)[C@H](O)[C@H]2O)=C2C(C3=CC=C(O)C(O)=C3)=CC(=O)OC2=C1

>  <standard_inchi>  (126) 
InChI=1S/C27H30O15/c1-37-11-5-16-20(12(7-19(31)40-16)10-2-3-13(28)14(29)4-10)17(6-11)41-27-25(36)23(34)22(33)18(42-27)9-39-26-24(35)21(32)15(30)8-38-26/h2-7,15,18,21-30,32-36H,8-9H2,1H3/t15-,18-,21+,22-,23+,24-,25-,26+,27-/m1/s1

>  <standard_inchi_key>  (126) 
GXDJGKMWLJOJFR-WUSKNVGPSA-N

>  <name>  (126) 
116310-59-9

>  <iupac_name>  (126) 
4-(3,4-dihydroxyphenyl)-7-methoxy-5-[(2~{S},3~{R},4~{S},5~{S},6~{R})-3,4,5-trihydroxy-6-[[(2~{S},3~{R},4~{S},5~{R})-3,4,5-trihydroxytetrahydropyran-2-yl]oxymethyl]tetrahydropyran-2-yl]oxy-chromen-2-one

>  <annotation_level>  (126) 
5

>  <total_atom_count>  (126) 
72

>  <heavy_atom_count>  (126) 
42

>  <molecular_weight>  (126) 
594.52

>  <exact_molecular_weight>  (126) 
594.15847

>  <molecular_formula>  (126) 
C27H30O15

>  <alogp>  (126) 
-1.48

>  <topological_polar_surface_area>  (126) 
238.20

>  <rotatable_bond_count>  (126) 
7

>  <hydrogen_bond_acceptors>  (126) 
15

>  <hydrogen_bond_donors>  (126) 
8

>  <hydrogen_bond_acceptors_lipinski>  (126) 
15

>  <hydrogen_bond_donors_lipinski>  (126) 
8

>  <lipinski_rule_of_five_violations>  (126) 
3

>  <aromatic_rings_count>  (126) 
3

>  <qed_drug_likeliness>  (126) 
0.11

>  <formal_charge>  (126) 
0

>  <fractioncsp3>  (126) 
0.44

>  <number_of_minimal_rings>  (126) 
5

>  <van_der_walls_volume>  (126) 
484.78

>  <contains_sugar>  (126) 
True

>  <contains_ring_sugars>  (126) 
True

>  <contains_linear_sugars>  (126) 
False

>  <murcko_framework>  (126) 
O1c2cccc(OC3OC(COC4OCCCC4)CCC3)c2C(=CC1)c5ccccc5

>  <np_likeness>  (126) 
1.63

>  <chemical_class>  (126) 
Coumarins and derivatives

>  <chemical_sub_class>  (126) 
Coumarin glycosides

>  <chemical_super_class>  (126) 
Phenylpropanoids and polyketides

>  <direct_parent_classification>  (126) 
Coumarin glycosides

>  <np_classifier_pathway>  (126) 
Shikimates and Phenylpropanoids

>  <np_classifier_superclass>  (126) 
Flavonoids

>  <np_classifier_class>  (126) 
nan

>  <np_classifier_is_glycoside>  (126) 
True

>  <organisms>  (126) 
Exostema caribaeum

>  <collections>  (126) 
AnalytiCon Discovery NPs|BIOFACQUIM|Latin America dataset|Super Natural II|ZINC NP

>  <dois>  (126) 
10.1021/np400785z

>  <synonyms>  (126) 
4-(3|4-Dihydroxyphenyl)-5-(6-O-beta-D-xylopyranosyl-beta-D-glucopyranosyl)oxy-7-methoxycoumarin|4-(3|4-dihydroxyphenyl)-7-methoxy-5-(2S|3R|4S|5S|6R)-3|4|5-trihydroxy-6-(2S|3R|4S|5R)-3|4|5-trihydroxyoxan-2-yloxymethyloxan-2-yloxychromen-2-one|Compound NP-002739|DTXSID001347847|AKOS040736246|4-(3|4-Dihydroxyphenyl)-7-methoxy-5-(((2S|3R|4S|5S|6R)-3|4|5-trihydroxy-6-((((2S|3R|4S|5R)-3|4|5-trihydroxytetrahydro-2H-pyran-2-yl)oxy)methyl)tetrahydro-2H-pyran-2-yl)oxy)-2H-chromen-2-one|4-phenylcoumarin 4

>  <cas>  (126) 
nan

$$$$

     RDKit          2D

 32 35  0  0  0  0  0  0  0  0999 V2000
    6.5480    1.2110    0.0000 O   0  0  0  0  0  0  0  0  0  0  0  0
    5.0481    1.2218    0.0000 C   0  0  0  0  0  0  0  0  0  0  0  0
    4.2887   -0.0717    0.0000 C   0  0  0  0  0  0  0  0  0  0  0  0
    2.7887   -0.0608    0.0000 C   0  0  0  0  0  0  0  0  0  0  0  0
    2.0293   -1.3544    0.0000 C   0  0  0  0  0  0  0  0  0  0  0  0
    0.5293   -1.3435    0.0000 C   0  0  0  0  0  0  0  0  0  0  0  0
   -0.2301   -2.6371    0.0000 C   0  0  0  0  0  0  0  0  0  0  0  0
    0.5105   -3.9415    0.0000 C   0  0  0  0  0  0  0  0  0  0  0  0
   -0.2489   -5.2351    0.0000 O   0  0  0  0  0  0  0  0  0  0  0  0
    2.0104   -3.9524    0.0000 C   0  0  0  0  0  0  0  0  0  0  0  0
    2.7510   -5.2568    0.0000 O   0  0  0  0  0  0  0  0  0  0  0  0
    2.7698   -2.6588    0.0000 C   0  0  0  0  0  0  0  0  0  0  0  0
    2.0481    1.2436    0.0000 C   0  0  0  0  0  0  0  0  0  0  0  0
    0.5482    1.2545    0.0000 C   0  0  0  0  0  0  0  0  0  0  0  0
   -0.2112   -0.0391    0.0000 O   0  0  0  0  0  0  0  0  0  0  0  0
   -1.7112   -0.0282    0.0000 C   0  0  0  0  0  0  0  0  0  0  0  0
   -2.4517    1.2763    0.0000 O   0  0  0  0  0  0  0  0  0  0  0  0
   -3.9517    1.2871    0.0000 C   0  0  0  0  0  0  0  0  0  0  0  0
   -4.6923    2.5916    0.0000 C   0  0  0  0  0  0  0  0  0  0  0  0
   -3.9329    3.8852    0.0000 O   0  0  0  0  0  0  0  0  0  0  0  0
   -4.7111   -0.0064    0.0000 C   0  0  0  0  0  0  0  0  0  0  0  0
   -6.2111    0.0045    0.0000 O   0  0  0  0  0  0  0  0  0  0  0  0
   -3.9706   -1.3109    0.0000 C   0  0  0  0  0  0  0  0  0  0  0  0
   -4.7300   -2.6044    0.0000 O   0  0  0  0  0  0  0  0  0  0  0  0
   -2.4706   -1.3217    0.0000 C   0  0  0  0  0  0  0  0  0  0  0  0
   -1.7300   -2.6262    0.0000 O   0  0  0  0  0  0  0  0  0  0  0  0
   -0.1924    2.5589    0.0000 C   0  0  0  0  0  0  0  0  0  0  0  0
    0.5670    3.8525    0.0000 C   0  0  0  0  0  0  0  0  0  0  0  0
   -0.1735    5.1570    0.0000 O   0  0  0  0  0  0  0  0  0  0  0  0
    2.0670    3.8416    0.0000 C   0  0  0  0  0  0  0  0  0  0  0  0
    2.8075    2.5372    0.0000 C   0  0  0  0  0  0  0  0  0  0  0  0
    4.3075    2.5263    0.0000 O   0  0  0  0  0  0  0  0  0  0  0  0
  1  2  2  0
  2  3  1  0
  3  4  2  0
  4  5  1  0
  5  6  2  0
  6  7  1  0
  7  8  2  0
  8  9  1  0
  8 10  1  0
 10 11  1  0
 10 12  2  0
  4 13  1  0
 13 14  2  0
 14 15  1  0
 16 15  1  1
 16 17  1  0
 17 18  1  0
 18 19  1  1
 19 20  1  0
 18 21  1  0
 21 22  1  6
 21 23  1  0
 23 24  1  1
 23 25  1  0
 25 26  1  6
 14 27  1  0
 27 28  2  0
 28 29  1  0
 28 30  1  0
 30 31  2  0
 31 32  1  0
 32  2  1  0
 12  5  1  0
 31 13  1  0
 25 16  1  0
M  END
>  <identifier>  (127) 
CNP0196851.1

>  <canonical_smiles>  (127) 
O=C1C=C(C2=CC=C(O)C(O)=C2)C2=C(O[C@@H]3O[C@H](CO)[C@@H](O)[C@H](O)[C@H]3O)C=C(O)C=C2O1

>  <standard_inchi>  (127) 
InChI=1S/C21H20O11/c22-7-15-18(27)19(28)20(29)21(32-15)31-14-5-9(23)4-13-17(14)10(6-16(26)30-13)8-1-2-11(24)12(25)3-8/h1-6,15,18-25,27-29H,7H2/t15-,18-,19+,20-,21-/m1/s1

>  <standard_inchi_key>  (127) 
VAPVFWUBNBLVMB-CMWLGVBASA-N

>  <name>  (127) 
116329-89-6

>  <iupac_name>  (127) 
4-(3,4-dihydroxyphenyl)-7-hydroxy-5-[(2~{S},3~{R},4~{S},5~{S},6~{R})-3,4,5-trihydroxy-6-(hydroxymethyl)tetrahydropyran-2-yl]oxy-chromen-2-one

>  <annotation_level>  (127) 
5

>  <total_atom_count>  (127) 
52

>  <heavy_atom_count>  (127) 
32

>  <molecular_weight>  (127) 
448.38

>  <exact_molecular_weight>  (127) 
448.10056

>  <molecular_formula>  (127) 
C21H20O11

>  <alogp>  (127) 
-0.24

>  <topological_polar_surface_area>  (127) 
190.28

>  <rotatable_bond_count>  (127) 
4

>  <hydrogen_bond_acceptors>  (127) 
11

>  <hydrogen_bond_donors>  (127) 
7

>  <hydrogen_bond_acceptors_lipinski>  (127) 
11

>  <hydrogen_bond_donors_lipinski>  (127) 
7

>  <lipinski_rule_of_five_violations>  (127) 
2

>  <aromatic_rings_count>  (127) 
3

>  <qed_drug_likeliness>  (127) 
0.21

>  <formal_charge>  (127) 
0

>  <fractioncsp3>  (127) 
0.29

>  <number_of_minimal_rings>  (127) 
4

>  <van_der_walls_volume>  (127) 
362.46

>  <contains_sugar>  (127) 
True

>  <contains_ring_sugars>  (127) 
True

>  <contains_linear_sugars>  (127) 
False

>  <murcko_framework>  (127) 
O1c2cccc(OC3OCCCC3)c2C(=CC1)c4ccccc4

>  <np_likeness>  (127) 
1.91

>  <chemical_class>  (127) 
Coumarins and derivatives

>  <chemical_sub_class>  (127) 
Coumarin glycosides

>  <chemical_super_class>  (127) 
Phenylpropanoids and polyketides

>  <direct_parent_classification>  (127) 
Coumarin glycosides

>  <np_classifier_pathway>  (127) 
Shikimates and Phenylpropanoids

>  <np_classifier_superclass>  (127) 
Coumarins

>  <np_classifier_class>  (127) 
Simple coumarins

>  <np_classifier_is_glycoside>  (127) 
True

>  <organisms>  (127) 
Exostema caribaeum

>  <collections>  (127) 
AnalytiCon Discovery NPs|BIOFACQUIM|Latin America dataset|Super Natural II|ZINC NP

>  <dois>  (127) 
10.1021/np400785z

>  <synonyms>  (127) 
Compound NP-002738|MEGxp0_000947|ACon0_001462|ACon1_000897|AKOS040736244|NCGC00169252-01|BRD-K66538536-001-01-6|5-Glucopyranosyloxy-3'|4'|7-trihydroxyneoflavone| >=95% (LC\/MS-ELSD)|4-(3|4-dihydroxyphenyl)-7-hydroxy-5-(2S|3R|4S|5S|6R)-3|4|5-trihydroxy-6-(hydroxymethyl)oxan-2-yloxychromen-2-one|4-phenylcoumarin 3

>  <cas>  (127) 
nan

$$$$

     RDKit          2D

 41 45  0  0  0  0  0  0  0  0999 V2000
   -5.9896   -5.1293    0.0000 O   0  0  0  0  0  0  0  0  0  0  0  0
   -4.8701   -4.1309    0.0000 C   0  0  0  0  0  0  0  0  0  0  0  0
   -5.1750   -2.6622    0.0000 C   0  0  0  0  0  0  0  0  0  0  0  0
   -4.0555   -1.6639    0.0000 C   0  0  0  0  0  0  0  0  0  0  0  0
   -4.3603   -0.1952    0.0000 C   0  0  0  0  0  0  0  0  0  0  0  0
   -3.2409    0.8032    0.0000 C   0  0  0  0  0  0  0  0  0  0  0  0
   -3.5457    2.2719    0.0000 C   0  0  0  0  0  0  0  0  0  0  0  0
   -4.9701    2.7422    0.0000 C   0  0  0  0  0  0  0  0  0  0  0  0
   -5.2749    4.2109    0.0000 O   0  0  0  0  0  0  0  0  0  0  0  0
   -6.0896    1.7438    0.0000 C   0  0  0  0  0  0  0  0  0  0  0  0
   -7.5139    2.2142    0.0000 O   0  0  0  0  0  0  0  0  0  0  0  0
   -5.7847    0.2752    0.0000 C   0  0  0  0  0  0  0  0  0  0  0  0
   -2.6311   -2.1342    0.0000 C   0  0  0  0  0  0  0  0  0  0  0  0
   -1.5116   -1.1358    0.0000 C   0  0  0  0  0  0  0  0  0  0  0  0
   -1.8165    0.3329    0.0000 O   0  0  0  0  0  0  0  0  0  0  0  0
   -0.6970    1.3312    0.0000 C   0  0  0  0  0  0  0  0  0  0  0  0
    0.7274    0.8609    0.0000 O   0  0  0  0  0  0  0  0  0  0  0  0
    1.8468    1.8593    0.0000 C   0  0  0  0  0  0  0  0  0  0  0  0
    3.2712    1.3890    0.0000 C   0  0  0  0  0  0  0  0  0  0  0  0
    3.5761   -0.0797    0.0000 O   0  0  0  0  0  0  0  0  0  0  0  0
    5.0004   -0.5500    0.0000 C   0  0  0  0  0  0  0  0  0  0  0  0
    5.3053   -2.0187    0.0000 O   0  0  0  0  0  0  0  0  0  0  0  0
    6.7297   -2.4891    0.0000 C   0  0  0  0  0  0  0  0  0  0  0  0
    7.8491   -1.4907    0.0000 C   0  0  0  0  0  0  0  0  0  0  0  0
    9.2735   -1.9610    0.0000 O   0  0  0  0  0  0  0  0  0  0  0  0
    7.5443   -0.0220    0.0000 C   0  0  0  0  0  0  0  0  0  0  0  0
    8.6638    0.9764    0.0000 O   0  0  0  0  0  0  0  0  0  0  0  0
    6.1199    0.4483    0.0000 C   0  0  0  0  0  0  0  0  0  0  0  0
    5.8150    1.9170    0.0000 O   0  0  0  0  0  0  0  0  0  0  0  0
    1.5420    3.3280    0.0000 C   0  0  0  0  0  0  0  0  0  0  0  0
    2.6615    4.3264    0.0000 O   0  0  0  0  0  0  0  0  0  0  0  0
    0.1176    3.7983    0.0000 C   0  0  0  0  0  0  0  0  0  0  0  0
   -0.1872    5.2670    0.0000 O   0  0  0  0  0  0  0  0  0  0  0  0
   -1.0019    2.7999    0.0000 C   0  0  0  0  0  0  0  0  0  0  0  0
   -2.4262    3.2703    0.0000 O   0  0  0  0  0  0  0  0  0  0  0  0
   -0.0873   -1.6061    0.0000 C   0  0  0  0  0  0  0  0  0  0  0  0
    0.2176   -3.0748    0.0000 C   0  0  0  0  0  0  0  0  0  0  0  0
    1.6420   -3.5452    0.0000 O   0  0  0  0  0  0  0  0  0  0  0  0
   -0.9019   -4.0732    0.0000 C   0  0  0  0  0  0  0  0  0  0  0  0
   -2.3263   -3.6029    0.0000 C   0  0  0  0  0  0  0  0  0  0  0  0
   -3.4457   -4.6012    0.0000 O   0  0  0  0  0  0  0  0  0  0  0  0
  1  2  2  0
  2  3  1  0
  3  4  2  0
  4  5  1  0
  5  6  2  0
  6  7  1  0
  7  8  2  0
  8  9  1  0
  8 10  1  0
 10 11  1  0
 10 12  2  0
  4 13  1  0
 13 14  2  0
 14 15  1  0
 16 15  1  1
 16 17  1  0
 17 18  1  0
 18 19  1  1
 19 20  1  0
 21 20  1  1
 21 22  1  0
 22 23  1  0
 23 24  1  0
 24 25  1  6
 24 26  1  0
 26 27  1  1
 26 28  1  0
 28 29  1  6
 18 30  1  0
 30 31  1  6
 30 32  1  0
 32 33  1  1
 32 34  1  0
 34 35  1  6
 14 36  1  0
 36 37  2  0
 37 38  1  0
 37 39  1  0
 39 40  2  0
 40 41  1  0
 41  2  1  0
 12  5  1  0
 40 13  1  0
 34 16  1  0
 28 21  1  0
M  END
>  <identifier>  (128) 
CNP0187719.1

>  <canonical_smiles>  (128) 
O=C1C=C(C2=CC=C(O)C(O)=C2)C2=C(O[C@@H]3O[C@H](CO[C@@H]4OC[C@@H](O)[C@H](O)[C@H]4O)[C@@H](O)[C@H](O)[C@H]3O)C=C(O)C=C2O1

>  <standard_inchi>  (128) 
InChI=1S/C26H28O15/c27-10-4-15-19(11(6-18(31)39-15)9-1-2-12(28)13(29)3-9)16(5-10)40-26-24(36)22(34)21(33)17(41-26)8-38-25-23(35)20(32)14(30)7-37-25/h1-6,14,17,20-30,32-36H,7-8H2/t14-,17-,20+,21-,22+,23-,24-,25+,26-/m1/s1

>  <standard_inchi_key>  (128) 
XSUATNGSAZMWRU-ZYAFLGLPSA-N

>  <name>  (128) 
nan

>  <iupac_name>  (128) 
4-(3,4-dihydroxyphenyl)-7-hydroxy-5-[(2~{S},3~{R},4~{S},5~{S},6~{R})-3,4,5-trihydroxy-6-[[(2~{S},3~{R},4~{S},5~{R})-3,4,5-trihydroxytetrahydropyran-2-yl]oxymethyl]tetrahydropyran-2-yl]oxy-chromen-2-one

>  <annotation_level>  (128) 
5

>  <total_atom_count>  (128) 
69

>  <heavy_atom_count>  (128) 
41

>  <molecular_weight>  (128) 
580.5

>  <exact_molecular_weight>  (128) 
580.14282

>  <molecular_formula>  (128) 
C26H28O15

>  <alogp>  (128) 
-1.78

>  <topological_polar_surface_area>  (128) 
249.20

>  <rotatable_bond_count>  (128) 
6

>  <hydrogen_bond_acceptors>  (128) 
15

>  <hydrogen_bond_donors>  (128) 
9

>  <hydrogen_bond_acceptors_lipinski>  (128) 
15

>  <hydrogen_bond_donors_lipinski>  (128) 
9

>  <lipinski_rule_of_five_violations>  (128) 
3

>  <aromatic_rings_count>  (128) 
3

>  <qed_drug_likeliness>  (128) 
0.12

>  <formal_charge>  (128) 
0

>  <fractioncsp3>  (128) 
0.42

>  <number_of_minimal_rings>  (128) 
5

>  <van_der_walls_volume>  (128) 
469.34

>  <contains_sugar>  (128) 
True

>  <contains_ring_sugars>  (128) 
True

>  <contains_linear_sugars>  (128) 
False

>  <murcko_framework>  (128) 
O1c2cccc(OC3OC(COC4OCCCC4)CCC3)c2C(=CC1)c5ccccc5

>  <np_likeness>  (128) 
1.84

>  <chemical_class>  (128) 
Coumarins and derivatives

>  <chemical_sub_class>  (128) 
Coumarin glycosides

>  <chemical_super_class>  (128) 
Phenylpropanoids and polyketides

>  <direct_parent_classification>  (128) 
Coumarin glycosides

>  <np_classifier_pathway>  (128) 
Shikimates and Phenylpropanoids

>  <np_classifier_superclass>  (128) 
Flavonoids

>  <np_classifier_class>  (128) 
nan

>  <np_classifier_is_glycoside>  (128) 
True

>  <organisms>  (128) 
Exostema caribaeum

>  <collections>  (128) 
BIOFACQUIM|Latin America dataset

>  <dois>  (128) 
10.1021/np400785z

>  <synonyms>  (128) 
5-O-b-D-xylopyranosyl-(1->6)-b-D-glucopyranosyl-7 3' 4'-trihydroxy-4-phenylcoumarin

>  <cas>  (128) 
nan

$$$$

     RDKit          2D

 33 36  0  0  0  0  0  0  0  0999 V2000
   -0.0843   -5.1682    0.0000 C   0  0  0  0  0  0  0  0  0  0  0  0
    1.3618   -4.7696    0.0000 O   0  0  0  0  0  0  0  0  0  0  0  0
    1.7396   -3.3180    0.0000 C   0  0  0  0  0  0  0  0  0  0  0  0
    0.6714   -2.2649    0.0000 C   0  0  0  0  0  0  0  0  0  0  0  0
    1.0493   -0.8133    0.0000 C   0  0  0  0  0  0  0  0  0  0  0  0
   -0.0189    0.2398    0.0000 O   0  0  0  0  0  0  0  0  0  0  0  0
   -1.4650   -0.1588    0.0000 C   0  0  0  0  0  0  0  0  0  0  0  0
   -2.5332    0.8943    0.0000 O   0  0  0  0  0  0  0  0  0  0  0  0
   -3.9793    0.4957    0.0000 C   0  0  0  0  0  0  0  0  0  0  0  0
   -5.0475    1.5487    0.0000 C   0  0  0  0  0  0  0  0  0  0  0  0
   -6.4936    1.1501    0.0000 O   0  0  0  0  0  0  0  0  0  0  0  0
   -4.3572   -0.9560    0.0000 C   0  0  0  0  0  0  0  0  0  0  0  0
   -5.8032   -1.3545    0.0000 O   0  0  0  0  0  0  0  0  0  0  0  0
   -3.2890   -2.0090    0.0000 C   0  0  0  0  0  0  0  0  0  0  0  0
   -3.6668   -3.4606    0.0000 O   0  0  0  0  0  0  0  0  0  0  0  0
   -1.8429   -1.6104    0.0000 C   0  0  0  0  0  0  0  0  0  0  0  0
   -0.7747   -2.6635    0.0000 O   0  0  0  0  0  0  0  0  0  0  0  0
    2.4954   -0.4147    0.0000 C   0  0  0  0  0  0  0  0  0  0  0  0
    2.8732    1.0369    0.0000 C   0  0  0  0  0  0  0  0  0  0  0  0
    1.8050    2.0900    0.0000 C   0  0  0  0  0  0  0  0  0  0  0  0
    2.1829    3.5416    0.0000 C   0  0  0  0  0  0  0  0  0  0  0  0
    1.1146    4.5947    0.0000 C   0  0  0  0  0  0  0  0  0  0  0  0
   -0.3314    4.1961    0.0000 C   0  0  0  0  0  0  0  0  0  0  0  0
   -1.3996    5.2491    0.0000 O   0  0  0  0  0  0  0  0  0  0  0  0
   -0.7093    2.7445    0.0000 C   0  0  0  0  0  0  0  0  0  0  0  0
   -2.1554    2.3459    0.0000 O   0  0  0  0  0  0  0  0  0  0  0  0
    0.3589    1.6914    0.0000 C   0  0  0  0  0  0  0  0  0  0  0  0
    4.3193    1.4355    0.0000 C   0  0  0  0  0  0  0  0  0  0  0  0
    5.3875    0.3825    0.0000 C   0  0  0  0  0  0  0  0  0  0  0  0
    6.8336    0.7810    0.0000 O   0  0  0  0  0  0  0  0  0  0  0  0
    5.0096   -1.0692    0.0000 O   0  0  0  0  0  0  0  0  0  0  0  0
    3.5636   -1.4677    0.0000 C   0  0  0  0  0  0  0  0  0  0  0  0
    3.1857   -2.9194    0.0000 C   0  0  0  0  0  0  0  0  0  0  0  0
  1  2  1  0
  2  3  1  0
  3  4  2  0
  4  5  1  0
  5  6  1  0
  7  6  1  1
  7  8  1  0
  8  9  1  0
  9 10  1  1
 10 11  1  0
  9 12  1  0
 12 13  1  1
 12 14  1  0
 14 15  1  1
 14 16  1  0
 16 17  1  6
  5 18  2  0
 18 19  1  0
 19 20  1  0
 20 21  2  0
 21 22  1  0
 22 23  2  0
 23 24  1  0
 23 25  1  0
 25 26  1  0
 25 27  2  0
 19 28  2  0
 28 29  1  0
 29 30  2  0
 29 31  1  0
 31 32  1  0
 32 33  2  0
 33  3  1  0
 16  7  1  0
 32 18  1  0
 27 20  1  0
M  END
>  <identifier>  (129) 
CNP0197837.1

>  <canonical_smiles>  (129) 
COC1=CC(O[C@@H]2O[C@H](CO)[C@H](O)[C@H](O)[C@H]2O)=C2C(C3=CC=C(O)C(O)=C3)=CC(=O)OC2=C1

>  <standard_inchi>  (129) 
InChI=1S/C22H22O11/c1-30-10-5-14-18(11(7-17(26)31-14)9-2-3-12(24)13(25)4-9)15(6-10)32-22-21(29)20(28)19(27)16(8-23)33-22/h2-7,16,19-25,27-29H,8H2,1H3/t16-,19+,20+,21-,22-/m1/s1

>  <standard_inchi_key>  (129) 
JZBHUVGJBWDUSA-WIXLDOGYSA-N

>  <name>  (129) 
112078-67-8

>  <iupac_name>  (129) 
4-(3,4-dihydroxyphenyl)-7-methoxy-5-[(2~{S},3~{R},4~{S},5~{R},6~{R})-3,4,5-trihydroxy-6-(hydroxymethyl)tetrahydropyran-2-yl]oxy-chromen-2-one

>  <annotation_level>  (129) 
5

>  <total_atom_count>  (129) 
55

>  <heavy_atom_count>  (129) 
33

>  <molecular_weight>  (129) 
462.41

>  <exact_molecular_weight>  (129) 
462.11621

>  <molecular_formula>  (129) 
C22H22O11

>  <alogp>  (129) 
0.06

>  <topological_polar_surface_area>  (129) 
179.28

>  <rotatable_bond_count>  (129) 
5

>  <hydrogen_bond_acceptors>  (129) 
11

>  <hydrogen_bond_donors>  (129) 
6

>  <hydrogen_bond_acceptors_lipinski>  (129) 
11

>  <hydrogen_bond_donors_lipinski>  (129) 
6

>  <lipinski_rule_of_five_violations>  (129) 
2

>  <aromatic_rings_count>  (129) 
3

>  <qed_drug_likeliness>  (129) 
0.22

>  <formal_charge>  (129) 
0

>  <fractioncsp3>  (129) 
0.32

>  <number_of_minimal_rings>  (129) 
4

>  <van_der_walls_volume>  (129) 
379.17

>  <contains_sugar>  (129) 
True

>  <contains_ring_sugars>  (129) 
True

>  <contains_linear_sugars>  (129) 
False

>  <murcko_framework>  (129) 
O1c2cccc(OC3OCCCC3)c2C(=CC1)c4ccccc4

>  <np_likeness>  (129) 
1.65

>  <chemical_class>  (129) 
Coumarins and derivatives

>  <chemical_sub_class>  (129) 
Coumarin glycosides

>  <chemical_super_class>  (129) 
Phenylpropanoids and polyketides

>  <direct_parent_classification>  (129) 
Coumarin glycosides

>  <np_classifier_pathway>  (129) 
Shikimates and Phenylpropanoids

>  <np_classifier_superclass>  (129) 
Coumarins

>  <np_classifier_class>  (129) 
Simple coumarins

>  <np_classifier_is_glycoside>  (129) 
True

>  <organisms>  (129) 
Exostema caribaeum

>  <collections>  (129) 
BIOFACQUIM|Latin America dataset|NPASS|Super Natural II

>  <dois>  (129) 
10.1021/np400785z|10.1021/np50059a006

>  <synonyms>  (129) 
CHEMBL486221|4-(3|4-Dihydroxyphenyl)-5-(beta-D-galactopyranosyloxy)-7-methoxy-2H-1-benzopyran-2-one|4-(3|4-Dihydroxyphenyl)-7-methoxy-5-(((2S|3R|4S|5R|6R)-3|4|5-trihydroxy-6-(hydroxymethyl)tetrahydro-2H-pyran-2-yl)oxy)-2H-chromen-2-one|4-phenylcoumarin 5

>  <cas>  (129) 
nan

$$$$

     RDKit          2D

 18 19  0  0  0  0  0  0  0  0999 V2000
   -3.1754    2.2500    0.0000 C   0  0  0  0  0  0  0  0  0  0  0  0
   -3.1754    0.7500    0.0000 C   0  0  0  0  0  0  0  0  0  0  0  0
   -4.4745   -0.0000    0.0000 C   0  0  0  0  0  0  0  0  0  0  0  0
   -1.8764    0.0000    0.0000 C   0  0  0  0  0  0  0  0  0  0  0  0
   -1.8764   -1.5000    0.0000 C   0  0  0  0  0  0  0  0  0  0  0  0
   -3.1754   -2.2500    0.0000 O   0  0  0  0  0  0  0  0  0  0  0  0
   -0.5774   -2.2500    0.0000 C   0  0  0  0  0  0  0  0  0  0  0  0
    0.7217   -1.5000    0.0000 C   0  0  0  0  0  0  0  0  0  0  0  0
    2.0207   -2.2500    0.0000 C   0  0  0  0  0  0  0  0  0  0  0  0
    3.3198   -1.5000    0.0000 C   0  0  0  0  0  0  0  0  0  0  0  0
    3.3198   -0.0000    0.0000 C   0  0  0  0  0  0  0  0  0  0  0  0
    4.6188    0.7500    0.0000 O   0  0  0  0  0  0  0  0  0  0  0  0
    2.0207    0.7500    0.0000 C   0  0  0  0  0  0  0  0  0  0  0  0
    2.0207    2.2500    0.0000 C   0  0  0  0  0  0  0  0  0  0  0  0
    0.7217    0.0000    0.0000 C   0  0  0  0  0  0  0  0  0  0  0  0
    0.7217    1.5000    0.0000 C   0  0  0  0  0  0  0  0  0  0  0  0
   -0.5774    0.7500    0.0000 C   0  0  0  0  0  0  0  0  0  0  0  0
   -0.5774    2.2500    0.0000 O   0  0  0  0  0  0  0  0  0  0  0  0
  1  2  1  0
  2  3  1  0
  2  4  2  0
  4  5  1  0
  5  6  2  0
  5  7  1  0
  7  8  2  0
  8  9  1  0
  9 10  1  0
 10 11  1  0
 11 12  1  6
 11 13  1  0
 13 14  1  1
 13 15  1  0
 15 16  1  1
 15 17  1  0
 17 18  1  6
 17  4  1  0
 15  8  1  0
M  END
>  <identifier>  (130) 
CNP0354050.1

>  <canonical_smiles>  (130) 
CC(C)=C1C(=O)C=C2CC[C@@H](O)[C@H](C)[C@@]2(C)[C@H]1O

>  <standard_inchi>  (130) 
InChI=1S/C15H22O3/c1-8(2)13-12(17)7-10-5-6-11(16)9(3)15(10,4)14(13)18/h7,9,11,14,16,18H,5-6H2,1-4H3/t9-,11+,14-,15+/m0/s1

>  <standard_inchi_key>  (130) 
NWZKOCPFFSDCBI-OCVOHJKQSA-N

>  <name>  (130) 
(3R,6R)-dihydroxy-9,7(11)-dien-8-oxoeremophilane

>  <iupac_name>  (130) 
(4~{R},4~{a}~{R},5~{R},6~{R})-4,6-dihydroxy-3-isopropylidene-4~{a},5-dimethyl-5,6,7,8-tetrahydro-4~{H}-naphthalen-2-one

>  <annotation_level>  (130) 
5

>  <total_atom_count>  (130) 
40

>  <heavy_atom_count>  (130) 
18

>  <molecular_weight>  (130) 
250.34

>  <exact_molecular_weight>  (130) 
250.15689

>  <molecular_formula>  (130) 
C15H22O3

>  <alogp>  (130) 
1.99

>  <topological_polar_surface_area>  (130) 
57.53

>  <rotatable_bond_count>  (130) 
0

>  <hydrogen_bond_acceptors>  (130) 
3

>  <hydrogen_bond_donors>  (130) 
2

>  <hydrogen_bond_acceptors_lipinski>  (130) 
3

>  <hydrogen_bond_donors_lipinski>  (130) 
2

>  <lipinski_rule_of_five_violations>  (130) 
0

>  <aromatic_rings_count>  (130) 
0

>  <qed_drug_likeliness>  (130) 
0.65

>  <formal_charge>  (130) 
0

>  <fractioncsp3>  (130) 
0.67

>  <number_of_minimal_rings>  (130) 
2

>  <van_der_walls_volume>  (130) 
244.62

>  <contains_sugar>  (130) 
False

>  <contains_ring_sugars>  (130) 
False

>  <contains_linear_sugars>  (130) 
False

>  <murcko_framework>  (130) 
C1=C2CCCCC2CCC1

>  <np_likeness>  (130) 
2.41

>  <chemical_class>  (130) 
Prenol lipids

>  <chemical_sub_class>  (130) 
Sesquiterpenoids

>  <chemical_super_class>  (130) 
Lipids and lipid-like molecules

>  <direct_parent_classification>  (130) 
Eremophilane, 8,9-secoeremophilane and furoeremophilane sesquiterpenoids

>  <np_classifier_pathway>  (130) 
Terpenoids

>  <np_classifier_superclass>  (130) 
Sesquiterpenoids

>  <np_classifier_class>  (130) 
Eremophilane sesquiterpenoids

>  <np_classifier_is_glycoside>  (130) 
False

>  <organisms>  (130) 
Penicillium sp. G1-a14

>  <collections>  (130) 
BIOFACQUIM|Latin America dataset|NPAtlas

>  <dois>  (130) 
10.1021/np5009224

>  <synonyms>  (130) 
CHEBI:204558|(4R|4aR|5R|6R)-4|6-dihydroxy-4a|5-dimethyl-3-propan-2-ylidene-5|6|7|8-tetrahydro-4H-naphthalen-2-one|3R 6Rdihydroxy-9 7(11)-dien-8-oxoeremophilane

>  <cas>  (130) 
nan

$$$$

     RDKit          2D

 38 42  0  0  0  0  0  0  0  0999 V2000
    1.1380   -6.4128    0.0000 C   0  0  0  0  0  0  0  0  0  0  0  0
    2.2662   -5.4242    0.0000 O   0  0  0  0  0  0  0  0  0  0  0  0
    1.9742   -3.9529    0.0000 C   0  0  0  0  0  0  0  0  0  0  0  0
    0.5540   -3.4702    0.0000 O   0  0  0  0  0  0  0  0  0  0  0  0
    3.1023   -2.9643    0.0000 C   0  0  0  0  0  0  0  0  0  0  0  0
    2.8103   -1.4930    0.0000 C   0  0  0  0  0  0  0  0  0  0  0  0
    3.9384   -0.5045    0.0000 C   0  0  0  0  0  0  0  0  0  0  0  0
    4.7161   -1.7872    0.0000 C   0  0  0  0  0  0  0  0  0  0  0  0
    5.3367    0.0386    0.0000 C   0  0  0  0  0  0  0  0  0  0  0  0
    3.6464    0.9668    0.0000 C   0  0  0  0  0  0  0  0  0  0  0  0
    4.7746    1.9554    0.0000 O   0  0  0  0  0  0  0  0  0  0  0  0
    4.4825    3.4267    0.0000 C   0  0  0  0  0  0  0  0  0  0  0  0
    5.6107    4.4152    0.0000 C   0  0  0  0  0  0  0  0  0  0  0  0
    3.0623    3.9094    0.0000 O   0  0  0  0  0  0  0  0  0  0  0  0
    2.2262    1.4495    0.0000 C   0  0  0  0  0  0  0  0  0  0  0  0
    3.3544    2.4381    0.0000 O   0  0  0  0  0  0  0  0  0  0  0  0
    0.8060    1.9323    0.0000 C   0  0  0  0  0  0  0  0  0  0  0  0
   -0.3222    0.9437    0.0000 C   0  0  0  0  0  0  0  0  0  0  0  0
   -1.7424    1.4265    0.0000 C   0  0  0  0  0  0  0  0  0  0  0  0
   -2.0344    2.8978    0.0000 C   0  0  0  0  0  0  0  0  0  0  0  0
   -3.4546    3.3805    0.0000 C   0  0  0  0  0  0  0  0  0  0  0  0
   -3.7466    4.8518    0.0000 O   0  0  0  0  0  0  0  0  0  0  0  0
   -4.5827    2.3919    0.0000 O   0  0  0  0  0  0  0  0  0  0  0  0
   -4.2907    0.9206    0.0000 C   0  0  0  0  0  0  0  0  0  0  0  0
   -5.4189   -0.0679    0.0000 C   0  0  0  0  0  0  0  0  0  0  0  0
   -5.2822   -1.5617    0.0000 C   0  0  0  0  0  0  0  0  0  0  0  0
   -6.6607   -2.1532    0.0000 O   0  0  0  0  0  0  0  0  0  0  0  0
   -7.6492   -1.0251    0.0000 C   0  0  0  0  0  0  0  0  0  0  0  0
   -6.8818    0.2637    0.0000 C   0  0  0  0  0  0  0  0  0  0  0  0
   -2.8705    0.4379    0.0000 C   0  0  0  0  0  0  0  0  0  0  0  0
   -3.9987   -0.5507    0.0000 C   0  0  0  0  0  0  0  0  0  0  0  0
   -2.5785   -1.0334    0.0000 C   0  0  0  0  0  0  0  0  0  0  0  0
   -1.1583   -1.5161    0.0000 C   0  0  0  0  0  0  0  0  0  0  0  0
   -0.0301   -0.5276    0.0000 C   0  0  0  0  0  0  0  0  0  0  0  0
    1.3901   -1.0103    0.0000 C   0  0  0  0  0  0  0  0  0  0  0  0
    1.6821   -2.4816    0.0000 C   0  0  0  0  0  0  0  0  0  0  0  0
    2.5182   -0.0218    0.0000 C   0  0  0  0  0  0  0  0  0  0  0  0
    3.3126   -0.0880    0.0000 O   0  0  0  0  0  0  0  0  0  0  0  0
  1  2  1  0
  2  3  1  0
  3  4  2  0
  3  5  1  0
  6  5  1  6
  6  7  1  0
  7  8  1  0
  7  9  1  0
  7 10  1  0
 10 11  1  1
 11 12  1  0
 12 13  1  0
 12 14  2  0
 10 15  1  0
 15 16  1  6
 15 17  1  0
 17 18  2  0
 18 19  1  0
 19 20  1  0
 20 21  1  0
 21 22  2  0
 21 23  1  0
 23 24  1  0
 24 25  1  6
 25 26  2  0
 26 27  1  0
 27 28  1  0
 28 29  2  0
 24 30  1  0
 30 31  1  6
 30 32  1  0
 32 33  1  0
 33 34  1  0
 34 35  1  0
 35 36  1  6
 35 37  1  0
 37 38  2  0
 35  6  1  0
 37 15  1  0
 34 18  1  0
 30 19  1  0
 29 25  1  0
M  END
>  <identifier>  (131) 
CNP0262057.1

>  <canonical_smiles>  (131) 
COC(=O)C[C@H]1C(C)(C)[C@H](OC(C)=O)[C@]2(O)C=C3C4CC(=O)O[C@@H](C5=COC=C5)[C@]4(C)CCC3[C@@]1(C)C2=O

>  <standard_inchi>  (131) 
InChI=1S/C29H36O9/c1-15(30)37-25-26(2,3)20(12-21(31)35-6)28(5)18-7-9-27(4)19(17(18)13-29(25,34)24(28)33)11-22(32)38-23(27)16-8-10-36-14-16/h8,10,13-14,18-20,23,25,34H,7,9,11-12H2,1-6H3/t18?,19?,20-,23-,25-,27+,28+,29-/m0/s1

>  <standard_inchi_key>  (131) 
ODHSWYNEXJIJEI-YKJBWMMYSA-N

>  <name>  (131) 
nan

>  <iupac_name>  (131) 
methyl 2-[(1~{R},5~{R},6~{R},13~{R},14~{S},16~{S})-14-acetoxy-6-(3-furyl)-13-hydroxy-1,5,15,15-tetramethyl-8,17-dioxo-7-oxatetracyclo[11.3.1.0^{2,11}.0^{5,10}]heptadec-11-en-16-yl]acetate

>  <annotation_level>  (131) 
5

>  <total_atom_count>  (131) 
74

>  <heavy_atom_count>  (131) 
38

>  <molecular_weight>  (131) 
528.6

>  <exact_molecular_weight>  (131) 
528.23593

>  <molecular_formula>  (131) 
C29H36O9

>  <alogp>  (131) 
3.70

>  <topological_polar_surface_area>  (131) 
129.34

>  <rotatable_bond_count>  (131) 
4

>  <hydrogen_bond_acceptors>  (131) 
9

>  <hydrogen_bond_donors>  (131) 
1

>  <hydrogen_bond_acceptors_lipinski>  (131) 
9

>  <hydrogen_bond_donors_lipinski>  (131) 
1

>  <lipinski_rule_of_five_violations>  (131) 
1

>  <aromatic_rings_count>  (131) 
1

>  <qed_drug_likeliness>  (131) 
0.35

>  <formal_charge>  (131) 
0

>  <fractioncsp3>  (131) 
0.66

>  <number_of_minimal_rings>  (131) 
5

>  <van_der_walls_volume>  (131) 
469.84

>  <contains_sugar>  (131) 
False

>  <contains_ring_sugars>  (131) 
False

>  <contains_linear_sugars>  (131) 
False

>  <murcko_framework>  (131) 
o1ccc(c1)C2OCCC3C4=CC5CCCC(C5)C4CCC23

>  <np_likeness>  (131) 
2.74

>  <chemical_class>  (131) 
Steroids and steroid derivatives

>  <chemical_sub_class>  (131) 
Steroid lactones

>  <chemical_super_class>  (131) 
Lipids and lipid-like molecules

>  <direct_parent_classification>  (131) 
Steroid lactones

>  <np_classifier_pathway>  (131) 
Terpenoids

>  <np_classifier_superclass>  (131) 
Triterpenoids

>  <np_classifier_class>  (131) 
Limonoids

>  <np_classifier_is_glycoside>  (131) 
False

>  <organisms>  (131) 
Swietenia humilis

>  <collections>  (131) 
BIOFACQUIM|Latin America dataset

>  <dois>  (131) 
10.1016/j.phytochem.2014.11.004

>  <synonyms>  (131) 
2-hydroxy-destigloyl-6-deoxyswietenine acetate

>  <cas>  (131) 
nan

$$$$

     RDKit          2D

 33 36  0  0  0  0  0  0  0  0999 V2000
   -0.0843   -5.1682    0.0000 C   0  0  0  0  0  0  0  0  0  0  0  0
    1.3618   -4.7696    0.0000 O   0  0  0  0  0  0  0  0  0  0  0  0
    1.7396   -3.3180    0.0000 C   0  0  0  0  0  0  0  0  0  0  0  0
    0.6714   -2.2649    0.0000 C   0  0  0  0  0  0  0  0  0  0  0  0
    1.0493   -0.8133    0.0000 C   0  0  0  0  0  0  0  0  0  0  0  0
   -0.0189    0.2398    0.0000 O   0  0  0  0  0  0  0  0  0  0  0  0
   -1.4650   -0.1588    0.0000 C   0  0  0  0  0  0  0  0  0  0  0  0
   -2.5332    0.8943    0.0000 O   0  0  0  0  0  0  0  0  0  0  0  0
   -3.9793    0.4957    0.0000 C   0  0  0  0  0  0  0  0  0  0  0  0
   -5.0475    1.5487    0.0000 C   0  0  0  0  0  0  0  0  0  0  0  0
   -6.4936    1.1501    0.0000 O   0  0  0  0  0  0  0  0  0  0  0  0
   -4.3572   -0.9560    0.0000 C   0  0  0  0  0  0  0  0  0  0  0  0
   -5.8032   -1.3545    0.0000 O   0  0  0  0  0  0  0  0  0  0  0  0
   -3.2890   -2.0090    0.0000 C   0  0  0  0  0  0  0  0  0  0  0  0
   -3.6668   -3.4606    0.0000 O   0  0  0  0  0  0  0  0  0  0  0  0
   -1.8429   -1.6104    0.0000 C   0  0  0  0  0  0  0  0  0  0  0  0
   -0.7747   -2.6635    0.0000 O   0  0  0  0  0  0  0  0  0  0  0  0
    2.4954   -0.4147    0.0000 C   0  0  0  0  0  0  0  0  0  0  0  0
    2.8732    1.0369    0.0000 C   0  0  0  0  0  0  0  0  0  0  0  0
    1.8050    2.0900    0.0000 C   0  0  0  0  0  0  0  0  0  0  0  0
    2.1829    3.5416    0.0000 C   0  0  0  0  0  0  0  0  0  0  0  0
    1.1146    4.5947    0.0000 C   0  0  0  0  0  0  0  0  0  0  0  0
   -0.3314    4.1961    0.0000 C   0  0  0  0  0  0  0  0  0  0  0  0
   -1.3996    5.2491    0.0000 O   0  0  0  0  0  0  0  0  0  0  0  0
   -0.7093    2.7445    0.0000 C   0  0  0  0  0  0  0  0  0  0  0  0
   -2.1554    2.3459    0.0000 O   0  0  0  0  0  0  0  0  0  0  0  0
    0.3589    1.6914    0.0000 C   0  0  0  0  0  0  0  0  0  0  0  0
    4.3193    1.4355    0.0000 C   0  0  0  0  0  0  0  0  0  0  0  0
    5.3875    0.3825    0.0000 C   0  0  0  0  0  0  0  0  0  0  0  0
    6.8336    0.7810    0.0000 O   0  0  0  0  0  0  0  0  0  0  0  0
    5.0096   -1.0692    0.0000 O   0  0  0  0  0  0  0  0  0  0  0  0
    3.5636   -1.4677    0.0000 C   0  0  0  0  0  0  0  0  0  0  0  0
    3.1857   -2.9194    0.0000 C   0  0  0  0  0  0  0  0  0  0  0  0
  1  2  1  0
  2  3  1  0
  3  4  2  0
  4  5  1  0
  5  6  1  0
  7  6  1  1
  7  8  1  0
  8  9  1  0
  9 10  1  1
 10 11  1  0
  9 12  1  0
 12 13  1  6
 12 14  1  0
 14 15  1  1
 14 16  1  0
 16 17  1  6
  5 18  2  0
 18 19  1  0
 19 20  1  0
 20 21  2  0
 21 22  1  0
 22 23  2  0
 23 24  1  0
 23 25  1  0
 25 26  1  0
 25 27  2  0
 19 28  2  0
 28 29  1  0
 29 30  2  0
 29 31  1  0
 31 32  1  0
 32 33  2  0
 33  3  1  0
 16  7  1  0
 32 18  1  0
 27 20  1  0
M  END
>  <identifier>  (132) 
CNP0197837.2

>  <canonical_smiles>  (132) 
COC1=CC(O[C@@H]2O[C@H](CO)[C@@H](O)[C@H](O)[C@H]2O)=C2C(C3=CC=C(O)C(O)=C3)=CC(=O)OC2=C1

>  <standard_inchi>  (132) 
InChI=1S/C22H22O11/c1-30-10-5-14-18(11(7-17(26)31-14)9-2-3-12(24)13(25)4-9)15(6-10)32-22-21(29)20(28)19(27)16(8-23)33-22/h2-7,16,19-25,27-29H,8H2,1H3/t16-,19-,20+,21-,22-/m1/s1

>  <standard_inchi_key>  (132) 
JZBHUVGJBWDUSA-RECXWPGBSA-N

>  <name>  (132) 
116310-58-8

>  <iupac_name>  (132) 
4-(3,4-dihydroxyphenyl)-7-methoxy-5-[(2~{S},3~{R},4~{S},5~{S},6~{R})-3,4,5-trihydroxy-6-(hydroxymethyl)tetrahydropyran-2-yl]oxy-chromen-2-one

>  <annotation_level>  (132) 
5

>  <total_atom_count>  (132) 
55

>  <heavy_atom_count>  (132) 
33

>  <molecular_weight>  (132) 
462.41

>  <exact_molecular_weight>  (132) 
462.11621

>  <molecular_formula>  (132) 
C22H22O11

>  <alogp>  (132) 
0.06

>  <topological_polar_surface_area>  (132) 
179.28

>  <rotatable_bond_count>  (132) 
5

>  <hydrogen_bond_acceptors>  (132) 
11

>  <hydrogen_bond_donors>  (132) 
6

>  <hydrogen_bond_acceptors_lipinski>  (132) 
11

>  <hydrogen_bond_donors_lipinski>  (132) 
6

>  <lipinski_rule_of_five_violations>  (132) 
2

>  <aromatic_rings_count>  (132) 
3

>  <qed_drug_likeliness>  (132) 
0.22

>  <formal_charge>  (132) 
0

>  <fractioncsp3>  (132) 
0.32

>  <number_of_minimal_rings>  (132) 
4

>  <van_der_walls_volume>  (132) 
379.46

>  <contains_sugar>  (132) 
True

>  <contains_ring_sugars>  (132) 
True

>  <contains_linear_sugars>  (132) 
False

>  <murcko_framework>  (132) 
O1c2cccc(OC3OCCCC3)c2C(=CC1)c4ccccc4

>  <np_likeness>  (132) 
1.65

>  <chemical_class>  (132) 
Coumarins and derivatives

>  <chemical_sub_class>  (132) 
Coumarin glycosides

>  <chemical_super_class>  (132) 
Phenylpropanoids and polyketides

>  <direct_parent_classification>  (132) 
Coumarin glycosides

>  <np_classifier_pathway>  (132) 
Shikimates and Phenylpropanoids

>  <np_classifier_superclass>  (132) 
Coumarins

>  <np_classifier_class>  (132) 
Simple coumarins

>  <np_classifier_is_glycoside>  (132) 
True

>  <organisms>  (132) 
Exostema caribaeum|Hintonia latiflora

>  <collections>  (132) 
AnalytiCon Discovery NPs|BIOFACQUIM|GNPS (Global Natural Products Social Molecular Networking)|Latin America dataset|NPASS|Super Natural II|ZINC NP

>  <dois>  (132) 
10.1021/np060233p|10.1021/np400785z|10.1021/np50059a006

>  <synonyms>  (132) 
4-(3|4-Dihydroxyphenyl)-5-beta-D-glucopyranosyloxy-7-methoxycoumarin|4-(3|4-dihydroxyphenyl)-7-methoxy-5-(2S|3R|4S|5S|6R)-3|4|5-trihydroxy-6-(hydroxymethyl)oxan-2-yloxychromen-2-one|Compound NP-002741|CHEMBL463401|MEGxp0_000949|ACon1_000996|AKOS040736247|NCGC00169775-01|4-phenylcoumarin 6

>  <cas>  (132) 
nan

$$$$

     RDKit          2D

 39 44  0  0  0  0  0  0  0  0999 V2000
   -1.1861    6.4688    0.0000 C   0  0  0  0  0  0  0  0  0  0  0  0
   -2.3093    5.4747    0.0000 O   0  0  0  0  0  0  0  0  0  0  0  0
   -2.0099    4.0048    0.0000 C   0  0  0  0  0  0  0  0  0  0  0  0
   -0.5873    3.5292    0.0000 O   0  0  0  0  0  0  0  0  0  0  0  0
   -3.1331    3.0107    0.0000 C   0  0  0  0  0  0  0  0  0  0  0  0
   -2.8338    1.5408    0.0000 C   0  0  0  0  0  0  0  0  0  0  0  0
   -3.9570    0.5467    0.0000 C   0  0  0  0  0  0  0  0  0  0  0  0
   -4.7410    1.8254    0.0000 C   0  0  0  0  0  0  0  0  0  0  0  0
   -5.3525   -0.0034    0.0000 C   0  0  0  0  0  0  0  0  0  0  0  0
   -3.6576   -0.9232    0.0000 C   0  0  0  0  0  0  0  0  0  0  0  0
   -4.7808   -1.9173    0.0000 O   0  0  0  0  0  0  0  0  0  0  0  0
   -4.4814   -3.3872    0.0000 C   0  0  0  0  0  0  0  0  0  0  0  0
   -5.6046   -4.3814    0.0000 C   0  0  0  0  0  0  0  0  0  0  0  0
   -3.0588   -3.8628    0.0000 O   0  0  0  0  0  0  0  0  0  0  0  0
   -2.2350   -1.3988    0.0000 C   0  0  0  0  0  0  0  0  0  0  0  0
   -3.3582   -2.3930    0.0000 O   0  0  0  0  0  0  0  0  0  0  0  0
   -2.5344    0.0710    0.0000 C   0  0  0  0  0  0  0  0  0  0  0  0
   -3.3291    0.1333    0.0000 O   0  0  0  0  0  0  0  0  0  0  0  0
   -1.4112    1.0652    0.0000 C   0  0  0  0  0  0  0  0  0  0  0  0
   -1.7106    2.5350    0.0000 C   0  0  0  0  0  0  0  0  0  0  0  0
    0.0114    0.5896    0.0000 C   0  0  0  0  0  0  0  0  0  0  0  0
    1.1346    1.5837    0.0000 C   0  0  0  0  0  0  0  0  0  0  0  0
    2.5572    1.1081    0.0000 C   0  0  0  0  0  0  0  0  0  0  0  0
    2.8566   -0.3617    0.0000 C   0  0  0  0  0  0  0  0  0  0  0  0
    3.9798    0.6325    0.0000 C   0  0  0  0  0  0  0  0  0  0  0  0
    1.7334   -1.3559    0.0000 C   0  0  0  0  0  0  0  0  0  0  0  0
    2.0328   -2.8257    0.0000 C   0  0  0  0  0  0  0  0  0  0  0  0
    3.4554   -3.3014    0.0000 C   0  0  0  0  0  0  0  0  0  0  0  0
    3.7548   -4.7712    0.0000 O   0  0  0  0  0  0  0  0  0  0  0  0
    4.5786   -2.3072    0.0000 O   0  0  0  0  0  0  0  0  0  0  0  0
    4.2792   -0.8374    0.0000 C   0  0  0  0  0  0  0  0  0  0  0  0
    5.4024    0.1568    0.0000 C   0  0  0  0  0  0  0  0  0  0  0  0
    5.2583    1.6499    0.0000 C   0  0  0  0  0  0  0  0  0  0  0  0
    6.6338    2.2483    0.0000 O   0  0  0  0  0  0  0  0  0  0  0  0
    7.6279    1.1251    0.0000 C   0  0  0  0  0  0  0  0  0  0  0  0
    6.8669   -0.1675    0.0000 C   0  0  0  0  0  0  0  0  0  0  0  0
    0.3108   -0.8803    0.0000 C   0  0  0  0  0  0  0  0  0  0  0  0
    0.6102   -2.3501    0.0000 O   0  0  0  0  0  0  0  0  0  0  0  0
   -0.8124   -1.8744    0.0000 C   0  0  0  0  0  0  0  0  0  0  0  0
  1  2  1  0
  2  3  1  0
  3  4  2  0
  3  5  1  0
  6  5  1  6
  6  7  1  0
  7  8  1  0
  7  9  1  0
  7 10  1  0
 10 11  1  1
 11 12  1  0
 12 13  1  0
 12 14  2  0
 10 15  1  0
 15 16  1  6
 15 17  1  0
 17 18  2  0
 17 19  1  0
 19 20  1  6
 19 21  1  0
 21 22  1  0
 22 23  1  0
 23 24  1  0
 24 25  1  6
 24 26  1  0
 26 27  1  0
 27 28  1  0
 28 29  2  0
 28 30  1  0
 30 31  1  0
 31 32  1  6
 32 33  2  0
 33 34  1  0
 34 35  1  0
 35 36  2  0
 26 37  1  0
 37 38  1  6
 39 38  1  6
 19  6  1  0
 37 21  1  0
 39 15  1  0
 31 24  1  0
 36 32  1  0
 39 37  1  0
M  END
>  <identifier>  (133) 
CNP0151191.1

>  <canonical_smiles>  (133) 
COC(=O)C[C@H]1C(C)(C)[C@H](OC(C)=O)[C@@]2(O)C(=O)[C@]1(C)C1CC[C@]3(C)C(CC(=O)O[C@H]3C3=COC=C3)[C@]13O[C@@H]32

>  <standard_inchi>  (133) 
InChI=1S/C29H36O10/c1-14(30)37-23-25(2,3)17(11-19(31)35-6)27(5)16-7-9-26(4)18(29(16)24(39-29)28(23,34)22(27)33)12-20(32)38-21(26)15-8-10-36-13-15/h8,10,13,16-18,21,23-24,34H,7,9,11-12H2,1-6H3/t16?,17-,18?,21-,23-,24+,26+,27+,28-,29+/m0/s1

>  <standard_inchi_key>  (133) 
NMEMUNAMFPMDHM-ICQCPBIVSA-N

>  <name>  (133) 
nan

>  <iupac_name>  (133) 
methyl 2-[(1~{S},2~{R},4~{S},9~{R},10~{R},14~{S},15~{S},17~{S})-17-acetoxy-9-(3-furyl)-1-hydroxy-10,14,16,16-tetramethyl-7,18-dioxo-3,8-dioxapentacyclo[12.3.1.0^{2,4}.0^{4,13}.0^{5,10}]octadecan-15-yl]acetate

>  <annotation_level>  (133) 
5

>  <total_atom_count>  (133) 
75

>  <heavy_atom_count>  (133) 
39

>  <molecular_weight>  (133) 
544.6

>  <exact_molecular_weight>  (133) 
544.23085

>  <molecular_formula>  (133) 
C29H36O10

>  <alogp>  (133) 
2.91

>  <topological_polar_surface_area>  (133) 
141.87

>  <rotatable_bond_count>  (133) 
4

>  <hydrogen_bond_acceptors>  (133) 
10

>  <hydrogen_bond_donors>  (133) 
1

>  <hydrogen_bond_acceptors_lipinski>  (133) 
10

>  <hydrogen_bond_donors_lipinski>  (133) 
1

>  <lipinski_rule_of_five_violations>  (133) 
1

>  <aromatic_rings_count>  (133) 
1

>  <qed_drug_likeliness>  (133) 
0.34

>  <formal_charge>  (133) 
0

>  <fractioncsp3>  (133) 
0.72

>  <number_of_minimal_rings>  (133) 
6

>  <van_der_walls_volume>  (133) 
475.44

>  <contains_sugar>  (133) 
False

>  <contains_ring_sugars>  (133) 
False

>  <contains_linear_sugars>  (133) 
False

>  <murcko_framework>  (133) 
o1ccc(c1)C2OCCC3C2CCC4C5CCCC(C5)C6OC643

>  <np_likeness>  (133) 
2.96

>  <chemical_class>  (133) 
Prenol lipids

>  <chemical_sub_class>  (133) 
Triterpenoids

>  <chemical_super_class>  (133) 
Lipids and lipid-like molecules

>  <direct_parent_classification>  (133) 
Limonoids

>  <np_classifier_pathway>  (133) 
Terpenoids

>  <np_classifier_superclass>  (133) 
Triterpenoids

>  <np_classifier_class>  (133) 
Limonoids

>  <np_classifier_is_glycoside>  (133) 
False

>  <organisms>  (133) 
Swietenia humilis

>  <collections>  (133) 
BIOFACQUIM|Latin America dataset

>  <dois>  (133) 
10.1016/j.phytochem.2014.11.004

>  <synonyms>  (133) 
Humulin B

>  <cas>  (133) 
nan

$$$$

     RDKit          2D

 40 44  0  0  0  0  0  0  0  0999 V2000
   -0.2939   -6.7032    0.0000 C   0  0  0  0  0  0  0  0  0  0  0  0
    0.9835   -5.9169    0.0000 O   0  0  0  0  0  0  0  0  0  0  0  0
    0.9412   -4.4175    0.0000 C   0  0  0  0  0  0  0  0  0  0  0  0
   -0.3785   -3.7044    0.0000 O   0  0  0  0  0  0  0  0  0  0  0  0
    2.2185   -3.6311    0.0000 C   0  0  0  0  0  0  0  0  0  0  0  0
    2.1762   -2.1317    0.0000 C   0  0  0  0  0  0  0  0  0  0  0  0
    3.4536   -1.3454    0.0000 C   0  0  0  0  0  0  0  0  0  0  0  0
    4.0062   -2.7399    0.0000 C   0  0  0  0  0  0  0  0  0  0  0  0
    4.9228   -1.0433    0.0000 C   0  0  0  0  0  0  0  0  0  0  0  0
    3.4113    0.1540    0.0000 C   0  0  0  0  0  0  0  0  0  0  0  0
    4.6886    0.9404    0.0000 O   0  0  0  0  0  0  0  0  0  0  0  0
    4.6463    2.4398    0.0000 C   0  0  0  0  0  0  0  0  0  0  0  0
    3.3266    3.1528    0.0000 O   0  0  0  0  0  0  0  0  0  0  0  0
    5.9237    3.2261    0.0000 C   0  0  0  0  0  0  0  0  0  0  0  0
    5.8813    4.7255    0.0000 C   0  0  0  0  0  0  0  0  0  0  0  0
    7.2433    2.5131    0.0000 C   0  0  0  0  0  0  0  0  0  0  0  0
    2.0916    0.8671    0.0000 C   0  0  0  0  0  0  0  0  0  0  0  0
    3.3689    1.6534    0.0000 O   0  0  0  0  0  0  0  0  0  0  0  0
    0.7719    1.5801    0.0000 C   0  0  0  0  0  0  0  0  0  0  0  0
   -0.5055    0.7938    0.0000 C   0  0  0  0  0  0  0  0  0  0  0  0
   -1.8251    1.5068    0.0000 C   0  0  0  0  0  0  0  0  0  0  0  0
   -1.8675    3.0062    0.0000 C   0  0  0  0  0  0  0  0  0  0  0  0
   -3.1871    3.7193    0.0000 C   0  0  0  0  0  0  0  0  0  0  0  0
   -3.2295    5.2187    0.0000 O   0  0  0  0  0  0  0  0  0  0  0  0
   -4.4645    2.9329    0.0000 O   0  0  0  0  0  0  0  0  0  0  0  0
   -4.4222    1.4335    0.0000 C   0  0  0  0  0  0  0  0  0  0  0  0
   -5.6996    0.6472    0.0000 C   0  0  0  0  0  0  0  0  0  0  0  0
   -5.8142   -0.8484    0.0000 C   0  0  0  0  0  0  0  0  0  0  0  0
   -7.2720   -1.2016    0.0000 O   0  0  0  0  0  0  0  0  0  0  0  0
   -8.0584    0.0758    0.0000 C   0  0  0  0  0  0  0  0  0  0  0  0
   -7.0865    1.2184    0.0000 C   0  0  0  0  0  0  0  0  0  0  0  0
   -3.1025    0.7205    0.0000 C   0  0  0  0  0  0  0  0  0  0  0  0
   -4.3799   -0.0659    0.0000 C   0  0  0  0  0  0  0  0  0  0  0  0
   -3.0602   -0.7789    0.0000 C   0  0  0  0  0  0  0  0  0  0  0  0
   -1.7405   -1.4920    0.0000 C   0  0  0  0  0  0  0  0  0  0  0  0
   -0.4632   -0.7056    0.0000 C   0  0  0  0  0  0  0  0  0  0  0  0
    0.8565   -1.4187    0.0000 C   0  0  0  0  0  0  0  0  0  0  0  0
    0.8988   -2.9181    0.0000 C   0  0  0  0  0  0  0  0  0  0  0  0
    2.1339   -0.6323    0.0000 C   0  0  0  0  0  0  0  0  0  0  0  0
    2.9061   -0.8303    0.0000 O   0  0  0  0  0  0  0  0  0  0  0  0
  1  2  1  0
  2  3  1  0
  3  4  2  0
  3  5  1  0
  6  5  1  6
  6  7  1  0
  7  8  1  0
  7  9  1  0
  7 10  1  0
 10 11  1  1
 11 12  1  0
 12 13  2  0
 12 14  1  0
 14 15  1  0
 14 16  1  0
 10 17  1  0
 17 18  1  6
 17 19  1  0
 19 20  2  0
 20 21  1  0
 21 22  1  0
 22 23  1  0
 23 24  2  0
 23 25  1  0
 25 26  1  0
 26 27  1  6
 27 28  2  0
 28 29  1  0
 29 30  1  0
 30 31  2  0
 26 32  1  0
 32 33  1  6
 32 34  1  0
 34 35  1  0
 35 36  1  0
 36 37  1  0
 37 38  1  6
 37 39  1  0
 39 40  2  0
 37  6  1  0
 39 17  1  0
 36 20  1  0
 32 21  1  0
 31 27  1  0
M  END
>  <identifier>  (134) 
CNP0207226.1

>  <canonical_smiles>  (134) 
COC(=O)C[C@H]1C(C)(C)[C@H](OC(=O)C(C)C)[C@]2(O)C=C3C4CC(=O)O[C@@H](C5=COC=C5)[C@]4(C)CCC3[C@@]1(C)C2=O

>  <standard_inchi>  (134) 
InChI=1S/C31H40O9/c1-16(2)25(34)40-27-28(3,4)21(13-22(32)37-7)30(6)19-8-10-29(5)20(18(19)14-31(27,36)26(30)35)12-23(33)39-24(29)17-9-11-38-15-17/h9,11,14-16,19-21,24,27,36H,8,10,12-13H2,1-7H3/t19?,20?,21-,24-,27-,29+,30+,31-/m0/s1

>  <standard_inchi_key>  (134) 
MBIKCFMEQQFVRE-BTZXGELBSA-N

>  <name>  (134) 
nan

>  <iupac_name>  (134) 
[(1~{R},5~{R},6~{R},13~{R},14~{S},16~{S})-6-(3-furyl)-13-hydroxy-16-(2-methoxy-2-oxo-ethyl)-1,5,15,15-tetramethyl-8,17-dioxo-7-oxatetracyclo[11.3.1.0^{2,11}.0^{5,10}]heptadec-11-en-14-yl] 2-methylpropanoate

>  <annotation_level>  (134) 
5

>  <total_atom_count>  (134) 
80

>  <heavy_atom_count>  (134) 
40

>  <molecular_weight>  (134) 
556.65

>  <exact_molecular_weight>  (134) 
556.26723

>  <molecular_formula>  (134) 
C31H40O9

>  <alogp>  (134) 
4.33

>  <topological_polar_surface_area>  (134) 
129.34

>  <rotatable_bond_count>  (134) 
5

>  <hydrogen_bond_acceptors>  (134) 
9

>  <hydrogen_bond_donors>  (134) 
1

>  <hydrogen_bond_acceptors_lipinski>  (134) 
9

>  <hydrogen_bond_donors_lipinski>  (134) 
1

>  <lipinski_rule_of_five_violations>  (134) 
1

>  <aromatic_rings_count>  (134) 
1

>  <qed_drug_likeliness>  (134) 
0.32

>  <formal_charge>  (134) 
0

>  <fractioncsp3>  (134) 
0.68

>  <number_of_minimal_rings>  (134) 
5

>  <van_der_walls_volume>  (134) 
501.78

>  <contains_sugar>  (134) 
False

>  <contains_ring_sugars>  (134) 
False

>  <contains_linear_sugars>  (134) 
False

>  <murcko_framework>  (134) 
o1ccc(c1)C2OCCC3C4=CC5CCCC(C5)C4CCC23

>  <np_likeness>  (134) 
2.62

>  <chemical_class>  (134) 
Steroids and steroid derivatives

>  <chemical_sub_class>  (134) 
Steroid lactones

>  <chemical_super_class>  (134) 
Lipids and lipid-like molecules

>  <direct_parent_classification>  (134) 
Steroid lactones

>  <np_classifier_pathway>  (134) 
Terpenoids

>  <np_classifier_superclass>  (134) 
Triterpenoids

>  <np_classifier_class>  (134) 
Limonoids

>  <np_classifier_is_glycoside>  (134) 
False

>  <organisms>  (134) 
Swietenia humilis

>  <collections>  (134) 
BIOFACQUIM|Latin America dataset

>  <dois>  (134) 
10.1016/j.phytochem.2014.11.004

>  <synonyms>  (134) 
Methyl-2-hydroxy-3-b-isobutyroxy-1-oxomeliac-8(30)-enate

>  <cas>  (134) 
nan

$$$$

     RDKit          2D

 41 45  0  0  0  0  0  0  0  0999 V2000
    7.5098    4.6314    0.0000 C   0  0  0  0  0  0  0  0  0  0  0  0
    6.1577    3.9818    0.0000 C   0  0  0  0  0  0  0  0  0  0  0  0
    6.0442    2.4861    0.0000 C   0  0  0  0  0  0  0  0  0  0  0  0
    7.2827    1.6400    0.0000 C   0  0  0  0  0  0  0  0  0  0  0  0
    4.6921    1.8366    0.0000 C   0  0  0  0  0  0  0  0  0  0  0  0
    3.4535    2.6827    0.0000 O   0  0  0  0  0  0  0  0  0  0  0  0
    4.5786    0.3409    0.0000 O   0  0  0  0  0  0  0  0  0  0  0  0
    3.2265   -0.3086    0.0000 C   0  0  0  0  0  0  0  0  0  0  0  0
    3.1130   -1.8043    0.0000 C   0  0  0  0  0  0  0  0  0  0  0  0
    4.6057   -1.6564    0.0000 C   0  0  0  0  0  0  0  0  0  0  0  0
    3.5179   -3.2487    0.0000 C   0  0  0  0  0  0  0  0  0  0  0  0
    1.7609   -2.4539    0.0000 C   0  0  0  0  0  0  0  0  0  0  0  0
    1.6474   -3.9496    0.0000 C   0  0  0  0  0  0  0  0  0  0  0  0
    0.2953   -4.5991    0.0000 C   0  0  0  0  0  0  0  0  0  0  0  0
   -0.9432   -3.7530    0.0000 O   0  0  0  0  0  0  0  0  0  0  0  0
    0.1818   -6.0948    0.0000 O   0  0  0  0  0  0  0  0  0  0  0  0
   -1.1702   -6.7444    0.0000 C   0  0  0  0  0  0  0  0  0  0  0  0
    0.5224   -1.6077    0.0000 C   0  0  0  0  0  0  0  0  0  0  0  0
    0.4089   -3.1034    0.0000 C   0  0  0  0  0  0  0  0  0  0  0  0
    1.8744   -0.9582    0.0000 C   0  0  0  0  0  0  0  0  0  0  0  0
    2.4043   -1.5538    0.0000 O   0  0  0  0  0  0  0  0  0  0  0  0
    1.9880    0.5375    0.0000 C   0  0  0  0  0  0  0  0  0  0  0  0
    3.3400    1.1870    0.0000 O   0  0  0  0  0  0  0  0  0  0  0  0
    0.7494    1.3837    0.0000 C   0  0  0  0  0  0  0  0  0  0  0  0
   -0.6027    0.7341    0.0000 C   0  0  0  0  0  0  0  0  0  0  0  0
   -1.8412    1.5803    0.0000 C   0  0  0  0  0  0  0  0  0  0  0  0
   -1.7277    3.0760    0.0000 C   0  0  0  0  0  0  0  0  0  0  0  0
   -2.9663    3.9221    0.0000 C   0  0  0  0  0  0  0  0  0  0  0  0
   -2.8527    5.4178    0.0000 O   0  0  0  0  0  0  0  0  0  0  0  0
   -4.3183    3.2726    0.0000 O   0  0  0  0  0  0  0  0  0  0  0  0
   -4.4318    1.7769    0.0000 C   0  0  0  0  0  0  0  0  0  0  0  0
   -5.7839    1.1274    0.0000 C   0  0  0  0  0  0  0  0  0  0  0  0
   -6.0532   -0.3483    0.0000 C   0  0  0  0  0  0  0  0  0  0  0  0
   -7.5398   -0.5482    0.0000 O   0  0  0  0  0  0  0  0  0  0  0  0
   -8.1893    0.8038    0.0000 C   0  0  0  0  0  0  0  0  0  0  0  0
   -7.1041    1.8394    0.0000 C   0  0  0  0  0  0  0  0  0  0  0  0
   -3.1933    0.9307    0.0000 C   0  0  0  0  0  0  0  0  0  0  0  0
   -4.5454    0.2812    0.0000 C   0  0  0  0  0  0  0  0  0  0  0  0
   -3.3068   -0.5650    0.0000 C   0  0  0  0  0  0  0  0  0  0  0  0
   -2.0683   -1.4111    0.0000 C   0  0  0  0  0  0  0  0  0  0  0  0
   -0.7162   -0.7616    0.0000 C   0  0  0  0  0  0  0  0  0  0  0  0
  1  2  1  0
  2  3  2  0
  3  4  1  0
  3  5  1  0
  5  6  2  0
  5  7  1  0
  8  7  1  1
  8  9  1  0
  9 10  1  0
  9 11  1  0
  9 12  1  0
 12 13  1  6
 13 14  1  0
 14 15  2  0
 14 16  1  0
 16 17  1  0
 12 18  1  0
 18 19  1  6
 18 20  1  0
 20 21  2  0
 20 22  1  0
 22 23  1  6
 22 24  1  0
 24 25  2  0
 25 26  1  0
 26 27  1  0
 27 28  1  0
 28 29  2  0
 28 30  1  0
 30 31  1  0
 31 32  1  6
 32 33  2  0
 33 34  1  0
 34 35  1  0
 35 36  2  0
 31 37  1  0
 37 38  1  6
 37 39  1  0
 39 40  1  0
 40 41  1  0
 22  8  1  0
 41 25  1  0
 41 18  1  0
 37 26  1  0
 36 32  1  0
M  END
>  <identifier>  (135) 
CNP0186875.1

>  <canonical_smiles>  (135) 
C/C=C(\C)C(=O)O[C@H]1C(C)(C)[C@H](CC(=O)OC)[C@]2(C)C(=O)[C@@]1(O)C=C1C3CC(=O)O[C@@H](C4=COC=C4)[C@]3(C)CCC12

>  <standard_inchi>  (135) 
InChI=1S/C32H40O9/c1-8-17(2)26(35)41-28-29(3,4)22(14-23(33)38-7)31(6)20-9-11-30(5)21(19(20)15-32(28,37)27(31)36)13-24(34)40-25(30)18-10-12-39-16-18/h8,10,12,15-16,20-22,25,28,37H,9,11,13-14H2,1-7H3/b17-8+/t20?,21?,22-,25-,28-,30+,31+,32-/m0/s1

>  <standard_inchi_key>  (135) 
JJTOVDGWVPPWNZ-DTFVITINSA-N

>  <name>  (135) 
nan

>  <iupac_name>  (135) 
[(1~{R},5~{R},6~{R},13~{R},14~{S},16~{S})-6-(3-furyl)-13-hydroxy-16-(2-methoxy-2-oxo-ethyl)-1,5,15,15-tetramethyl-8,17-dioxo-7-oxatetracyclo[11.3.1.0^{2,11}.0^{5,10}]heptadec-11-en-14-yl] (~{E})-2-methylbut-2-enoate

>  <annotation_level>  (135) 
5

>  <total_atom_count>  (135) 
81

>  <heavy_atom_count>  (135) 
41

>  <molecular_weight>  (135) 
568.66

>  <exact_molecular_weight>  (135) 
568.26723

>  <molecular_formula>  (135) 
C32H40O9

>  <alogp>  (135) 
4.64

>  <topological_polar_surface_area>  (135) 
129.34

>  <rotatable_bond_count>  (135) 
5

>  <hydrogen_bond_acceptors>  (135) 
9

>  <hydrogen_bond_donors>  (135) 
1

>  <hydrogen_bond_acceptors_lipinski>  (135) 
9

>  <hydrogen_bond_donors_lipinski>  (135) 
1

>  <lipinski_rule_of_five_violations>  (135) 
1

>  <aromatic_rings_count>  (135) 
1

>  <qed_drug_likeliness>  (135) 
0.23

>  <formal_charge>  (135) 
0

>  <fractioncsp3>  (135) 
0.63

>  <number_of_minimal_rings>  (135) 
5

>  <van_der_walls_volume>  (135) 
511.48

>  <contains_sugar>  (135) 
False

>  <contains_ring_sugars>  (135) 
False

>  <contains_linear_sugars>  (135) 
False

>  <murcko_framework>  (135) 
o1ccc(c1)C2OCCC3C4=CC5CCCC(C5)C4CCC23

>  <np_likeness>  (135) 
2.85

>  <chemical_class>  (135) 
Steroids and steroid derivatives

>  <chemical_sub_class>  (135) 
Steroid lactones

>  <chemical_super_class>  (135) 
Lipids and lipid-like molecules

>  <direct_parent_classification>  (135) 
Steroid lactones

>  <np_classifier_pathway>  (135) 
Terpenoids

>  <np_classifier_superclass>  (135) 
Triterpenoids

>  <np_classifier_class>  (135) 
Limonoids

>  <np_classifier_is_glycoside>  (135) 
False

>  <organisms>  (135) 
Swietenia humilis

>  <collections>  (135) 
BIOFACQUIM|Latin America dataset

>  <dois>  (135) 
10.1016/j.phytochem.2014.11.004

>  <synonyms>  (135) 
Methyl-2-hydroxy-3-b-tigloyloxy-1-oxomeliac-8(30)-enate

>  <cas>  (135) 
nan

$$$$

     RDKit          2D

 43 47  0  0  0  0  0  0  0  0999 V2000
   -0.3248   -6.6798    0.0000 C   0  0  0  0  0  0  0  0  0  0  0  0
    0.9044   -5.8201    0.0000 O   0  0  0  0  0  0  0  0  0  0  0  0
    0.7744   -4.3257    0.0000 C   0  0  0  0  0  0  0  0  0  0  0  0
   -0.5847   -3.6911    0.0000 O   0  0  0  0  0  0  0  0  0  0  0  0
    2.0036   -3.4660    0.0000 C   0  0  0  0  0  0  0  0  0  0  0  0
    1.8736   -1.9716    0.0000 C   0  0  0  0  0  0  0  0  0  0  0  0
    3.1028   -1.1119    0.0000 C   0  0  0  0  0  0  0  0  0  0  0  0
    3.7360   -2.4717    0.0000 C   0  0  0  0  0  0  0  0  0  0  0  0
    4.5519   -0.7244    0.0000 C   0  0  0  0  0  0  0  0  0  0  0  0
    2.9728    0.3825    0.0000 C   0  0  0  0  0  0  0  0  0  0  0  0
    4.2020    1.2422    0.0000 O   0  0  0  0  0  0  0  0  0  0  0  0
    5.5611    0.6076    0.0000 C   0  0  0  0  0  0  0  0  0  0  0  0
    5.6911   -0.8868    0.0000 O   0  0  0  0  0  0  0  0  0  0  0  0
    6.7903    1.4673    0.0000 C   0  0  0  0  0  0  0  0  0  0  0  0
    8.1494    0.8327    0.0000 C   0  0  0  0  0  0  0  0  0  0  0  0
    6.6603    2.9617    0.0000 C   0  0  0  0  0  0  0  0  0  0  0  0
    1.6137    1.0171    0.0000 C   0  0  0  0  0  0  0  0  0  0  0  0
    2.8429    1.8768    0.0000 O   0  0  0  0  0  0  0  0  0  0  0  0
    2.7129    3.3712    0.0000 C   0  0  0  0  0  0  0  0  0  0  0  0
    3.9421    4.2309    0.0000 C   0  0  0  0  0  0  0  0  0  0  0  0
    1.3537    4.0058    0.0000 O   0  0  0  0  0  0  0  0  0  0  0  0
    0.2545    1.6517    0.0000 C   0  0  0  0  0  0  0  0  0  0  0  0
   -0.9746    0.7920    0.0000 C   0  0  0  0  0  0  0  0  0  0  0  0
   -2.3338    1.4266    0.0000 C   0  0  0  0  0  0  0  0  0  0  0  0
   -2.4637    2.9210    0.0000 C   0  0  0  0  0  0  0  0  0  0  0  0
   -3.8229    3.5556    0.0000 C   0  0  0  0  0  0  0  0  0  0  0  0
   -3.9528    5.0500    0.0000 O   0  0  0  0  0  0  0  0  0  0  0  0
   -5.0520    2.6959    0.0000 O   0  0  0  0  0  0  0  0  0  0  0  0
   -4.9221    1.2015    0.0000 C   0  0  0  0  0  0  0  0  0  0  0  0
   -6.1512    0.3418    0.0000 C   0  0  0  0  0  0  0  0  0  0  0  0
   -6.1782   -1.1580    0.0000 C   0  0  0  0  0  0  0  0  0  0  0  0
   -7.6129   -1.5958    0.0000 O   0  0  0  0  0  0  0  0  0  0  0  0
   -8.4726   -0.3666    0.0000 C   0  0  0  0  0  0  0  0  0  0  0  0
   -7.5693    0.8309    0.0000 C   0  0  0  0  0  0  0  0  0  0  0  0
   -3.5629    0.5669    0.0000 C   0  0  0  0  0  0  0  0  0  0  0  0
   -4.7921   -0.2928    0.0000 C   0  0  0  0  0  0  0  0  0  0  0  0
   -3.4330   -0.9275    0.0000 C   0  0  0  0  0  0  0  0  0  0  0  0
   -2.0738   -1.5621    0.0000 C   0  0  0  0  0  0  0  0  0  0  0  0
   -0.8447   -0.7024    0.0000 C   0  0  0  0  0  0  0  0  0  0  0  0
    0.5145   -1.3370    0.0000 C   0  0  0  0  0  0  0  0  0  0  0  0
    0.6444   -2.8314    0.0000 C   0  0  0  0  0  0  0  0  0  0  0  0
    1.7436   -0.4773    0.0000 C   0  0  0  0  0  0  0  0  0  0  0  0
    2.5261   -0.6297    0.0000 O   0  0  0  0  0  0  0  0  0  0  0  0
  1  2  1  0
  2  3  1  0
  3  4  2  0
  3  5  1  0
  6  5  1  6
  6  7  1  0
  7  8  1  0
  7  9  1  0
  7 10  1  0
 10 11  1  1
 11 12  1  0
 12 13  2  0
 12 14  1  0
 14 15  1  0
 14 16  1  0
 10 17  1  0
 17 18  1  6
 18 19  1  0
 19 20  1  0
 19 21  2  0
 17 22  1  0
 22 23  2  0
 23 24  1  0
 24 25  1  0
 25 26  1  0
 26 27  2  0
 26 28  1  0
 28 29  1  0
 29 30  1  6
 30 31  2  0
 31 32  1  0
 32 33  1  0
 33 34  2  0
 29 35  1  0
 35 36  1  6
 35 37  1  0
 37 38  1  0
 38 39  1  0
 39 40  1  0
 40 41  1  6
 40 42  1  0
 42 43  2  0
 40  6  1  0
 42 17  1  0
 39 23  1  0
 35 24  1  0
 34 30  1  0
M  END
>  <identifier>  (136) 
CNP0421251.1

>  <canonical_smiles>  (136) 
COC(=O)C[C@H]1C(C)(C)[C@H](OC(=O)C(C)C)[C@]2(OC(C)=O)C=C3C4CC(=O)O[C@@H](C5=COC=C5)[C@]4(C)CCC3[C@@]1(C)C2=O

>  <standard_inchi>  (136) 
InChI=1S/C33H42O10/c1-17(2)27(37)42-29-30(4,5)23(14-24(35)39-8)32(7)21-9-11-31(6)22(13-25(36)41-26(31)19-10-12-40-16-19)20(21)15-33(29,28(32)38)43-18(3)34/h10,12,15-17,21-23,26,29H,9,11,13-14H2,1-8H3/t21?,22?,23-,26-,29-,31+,32+,33-/m0/s1

>  <standard_inchi_key>  (136) 
IQZMMMBJYWYVKW-MQDCWUPWSA-N

>  <name>  (136) 
nan

>  <iupac_name>  (136) 
[(1~{R},5~{R},6~{R},13~{R},14~{S},16~{S})-13-acetoxy-6-(3-furyl)-16-(2-methoxy-2-oxo-ethyl)-1,5,15,15-tetramethyl-8,17-dioxo-7-oxatetracyclo[11.3.1.0^{2,11}.0^{5,10}]heptadec-11-en-14-yl] 2-methylpropanoate

>  <annotation_level>  (136) 
5

>  <total_atom_count>  (136) 
85

>  <heavy_atom_count>  (136) 
43

>  <molecular_weight>  (136) 
598.69

>  <exact_molecular_weight>  (136) 
598.2778

>  <molecular_formula>  (136) 
C33H42O10

>  <alogp>  (136) 
4.90

>  <topological_polar_surface_area>  (136) 
135.41

>  <rotatable_bond_count>  (136) 
6

>  <hydrogen_bond_acceptors>  (136) 
10

>  <hydrogen_bond_donors>  (136) 
0

>  <hydrogen_bond_acceptors_lipinski>  (136) 
10

>  <hydrogen_bond_donors_lipinski>  (136) 
0

>  <lipinski_rule_of_five_violations>  (136) 
1

>  <aromatic_rings_count>  (136) 
1

>  <qed_drug_likeliness>  (136) 
0.25

>  <formal_charge>  (136) 
0

>  <fractioncsp3>  (136) 
0.67

>  <number_of_minimal_rings>  (136) 
5

>  <van_der_walls_volume>  (136) 
539.02

>  <contains_sugar>  (136) 
False

>  <contains_ring_sugars>  (136) 
False

>  <contains_linear_sugars>  (136) 
False

>  <murcko_framework>  (136) 
o1ccc(c1)C2OCCC3C4=CC5CCCC(C5)C4CCC23

>  <np_likeness>  (136) 
2.33

>  <chemical_class>  (136) 
Naphthopyrans

>  <chemical_sub_class>  (136) 
Naphthopyrans

>  <chemical_super_class>  (136) 
Organoheterocyclic compounds

>  <direct_parent_classification>  (136) 
Naphthopyrans

>  <np_classifier_pathway>  (136) 
Terpenoids

>  <np_classifier_superclass>  (136) 
Triterpenoids

>  <np_classifier_class>  (136) 
Limonoids

>  <np_classifier_is_glycoside>  (136) 
False

>  <organisms>  (136) 
Swietenia humilis

>  <collections>  (136) 
BIOFACQUIM|Latin America dataset

>  <dois>  (136) 
10.1016/j.phytochem.2014.11.004

>  <synonyms>  (136) 
Humilinolide G

>  <cas>  (136) 
nan

$$$$

     RDKit          2D

 44 48  0  0  0  0  0  0  0  0999 V2000
    7.6158    3.7722    0.0000 C   0  0  0  0  0  0  0  0  0  0  0  0
    6.2133    3.2404    0.0000 C   0  0  0  0  0  0  0  0  0  0  0  0
    5.9726    1.7598    0.0000 C   0  0  0  0  0  0  0  0  0  0  0  0
    7.1344    0.8111    0.0000 C   0  0  0  0  0  0  0  0  0  0  0  0
    4.5700    1.2280    0.0000 C   0  0  0  0  0  0  0  0  0  0  0  0
    3.6722    2.4297    0.0000 O   0  0  0  0  0  0  0  0  0  0  0  0
    4.3293   -0.2525    0.0000 O   0  0  0  0  0  0  0  0  0  0  0  0
    2.9267   -0.7844    0.0000 C   0  0  0  0  0  0  0  0  0  0  0  0
    2.6860   -2.2649    0.0000 C   0  0  0  0  0  0  0  0  0  0  0  0
    4.1859   -2.2449    0.0000 C   0  0  0  0  0  0  0  0  0  0  0  0
    2.9662   -3.7385    0.0000 C   0  0  0  0  0  0  0  0  0  0  0  0
    1.2835   -2.7967    0.0000 C   0  0  0  0  0  0  0  0  0  0  0  0
    1.0427   -4.2773    0.0000 C   0  0  0  0  0  0  0  0  0  0  0  0
   -0.3598   -4.8091    0.0000 C   0  0  0  0  0  0  0  0  0  0  0  0
   -1.5217   -3.8604    0.0000 O   0  0  0  0  0  0  0  0  0  0  0  0
   -0.6005   -6.2897    0.0000 O   0  0  0  0  0  0  0  0  0  0  0  0
   -2.0031   -6.8215    0.0000 C   0  0  0  0  0  0  0  0  0  0  0  0
    0.1216   -1.8480    0.0000 C   0  0  0  0  0  0  0  0  0  0  0  0
   -0.1191   -3.3286    0.0000 C   0  0  0  0  0  0  0  0  0  0  0  0
    1.5242   -1.3162    0.0000 C   0  0  0  0  0  0  0  0  0  0  0  0
    2.0013   -1.9548    0.0000 O   0  0  0  0  0  0  0  0  0  0  0  0
    1.7649    0.1644    0.0000 C   0  0  0  0  0  0  0  0  0  0  0  0
    3.1674    0.6962    0.0000 O   0  0  0  0  0  0  0  0  0  0  0  0
    3.4081    2.1768    0.0000 C   0  0  0  0  0  0  0  0  0  0  0  0
    4.8107    2.7086    0.0000 C   0  0  0  0  0  0  0  0  0  0  0  0
    2.2463    3.1255    0.0000 O   0  0  0  0  0  0  0  0  0  0  0  0
    0.6030    1.1131    0.0000 C   0  0  0  0  0  0  0  0  0  0  0  0
   -0.7995    0.5813    0.0000 C   0  0  0  0  0  0  0  0  0  0  0  0
   -1.9614    1.5301    0.0000 C   0  0  0  0  0  0  0  0  0  0  0  0
   -1.7207    3.0106    0.0000 C   0  0  0  0  0  0  0  0  0  0  0  0
   -2.8825    3.9594    0.0000 C   0  0  0  0  0  0  0  0  0  0  0  0
   -2.6418    5.4399    0.0000 O   0  0  0  0  0  0  0  0  0  0  0  0
   -4.2851    3.4275    0.0000 O   0  0  0  0  0  0  0  0  0  0  0  0
   -4.5258    1.9470    0.0000 C   0  0  0  0  0  0  0  0  0  0  0  0
   -5.9283    1.4152    0.0000 C   0  0  0  0  0  0  0  0  0  0  0  0
   -6.3225   -0.0321    0.0000 C   0  0  0  0  0  0  0  0  0  0  0  0
   -7.8207   -0.1045    0.0000 O   0  0  0  0  0  0  0  0  0  0  0  0
   -8.3526    1.2981    0.0000 C   0  0  0  0  0  0  0  0  0  0  0  0
   -7.1830    2.2373    0.0000 C   0  0  0  0  0  0  0  0  0  0  0  0
   -3.3639    0.9982    0.0000 C   0  0  0  0  0  0  0  0  0  0  0  0
   -4.7665    0.4664    0.0000 C   0  0  0  0  0  0  0  0  0  0  0  0
   -3.6046   -0.4823    0.0000 C   0  0  0  0  0  0  0  0  0  0  0  0
   -2.4428   -1.4311    0.0000 C   0  0  0  0  0  0  0  0  0  0  0  0
   -1.0402   -0.8993    0.0000 C   0  0  0  0  0  0  0  0  0  0  0  0
  1  2  1  0
  2  3  2  0
  3  4  1  0
  3  5  1  0
  5  6  2  0
  5  7  1  0
  8  7  1  1
  8  9  1  0
  9 10  1  0
  9 11  1  0
  9 12  1  0
 12 13  1  6
 13 14  1  0
 14 15  2  0
 14 16  1  0
 16 17  1  0
 12 18  1  0
 18 19  1  6
 18 20  1  0
 20 21  2  0
 20 22  1  0
 22 23  1  6
 23 24  1  0
 24 25  1  0
 24 26  2  0
 22 27  1  0
 27 28  2  0
 28 29  1  0
 29 30  1  0
 30 31  1  0
 31 32  2  0
 31 33  1  0
 33 34  1  0
 34 35  1  6
 35 36  2  0
 36 37  1  0
 37 38  1  0
 38 39  2  0
 34 40  1  0
 40 41  1  6
 40 42  1  0
 42 43  1  0
 43 44  1  0
 22  8  1  0
 44 28  1  0
 44 18  1  0
 40 29  1  0
 39 35  1  0
M  END
>  <identifier>  (137) 
CNP0237585.1

>  <canonical_smiles>  (137) 
C/C=C(\C)C(=O)O[C@H]1C(C)(C)[C@H](CC(=O)OC)[C@]2(C)C(=O)[C@@]1(OC(C)=O)C=C1C3CC(=O)O[C@@H](C4=COC=C4)[C@]3(C)CCC12

>  <standard_inchi>  (137) 
InChI=1S/C34H42O10/c1-9-18(2)28(38)43-30-31(4,5)24(15-25(36)40-8)33(7)22-10-12-32(6)23(14-26(37)42-27(32)20-11-13-41-17-20)21(22)16-34(30,29(33)39)44-19(3)35/h9,11,13,16-17,22-24,27,30H,10,12,14-15H2,1-8H3/b18-9+/t22?,23?,24-,27-,30-,32+,33+,34-/m0/s1

>  <standard_inchi_key>  (137) 
UMAZUSDJQFBJAR-JLZHRPIQSA-N

>  <name>  (137) 
nan

>  <iupac_name>  (137) 
[(1~{R},5~{R},6~{R},13~{R},14~{S},16~{S})-13-acetoxy-6-(3-furyl)-16-(2-methoxy-2-oxo-ethyl)-1,5,15,15-tetramethyl-8,17-dioxo-7-oxatetracyclo[11.3.1.0^{2,11}.0^{5,10}]heptadec-11-en-14-yl] (~{E})-2-methylbut-2-enoate

>  <annotation_level>  (137) 
5

>  <total_atom_count>  (137) 
86

>  <heavy_atom_count>  (137) 
44

>  <molecular_weight>  (137) 
610.7

>  <exact_molecular_weight>  (137) 
610.2778

>  <molecular_formula>  (137) 
C34H42O10

>  <alogp>  (137) 
5.21

>  <topological_polar_surface_area>  (137) 
135.41

>  <rotatable_bond_count>  (137) 
6

>  <hydrogen_bond_acceptors>  (137) 
10

>  <hydrogen_bond_donors>  (137) 
0

>  <hydrogen_bond_acceptors_lipinski>  (137) 
10

>  <hydrogen_bond_donors_lipinski>  (137) 
0

>  <lipinski_rule_of_five_violations>  (137) 
2

>  <aromatic_rings_count>  (137) 
1

>  <qed_drug_likeliness>  (137) 
0.18

>  <formal_charge>  (137) 
0

>  <fractioncsp3>  (137) 
0.62

>  <number_of_minimal_rings>  (137) 
5

>  <van_der_walls_volume>  (137) 
549.40

>  <contains_sugar>  (137) 
False

>  <contains_ring_sugars>  (137) 
False

>  <contains_linear_sugars>  (137) 
False

>  <murcko_framework>  (137) 
o1ccc(c1)C2OCCC3C4=CC5CCCC(C5)C4CCC23

>  <np_likeness>  (137) 
2.54

>  <chemical_class>  (137) 
Naphthopyrans

>  <chemical_sub_class>  (137) 
Naphthopyrans

>  <chemical_super_class>  (137) 
Organoheterocyclic compounds

>  <direct_parent_classification>  (137) 
Naphthopyrans

>  <np_classifier_pathway>  (137) 
Terpenoids

>  <np_classifier_superclass>  (137) 
Triterpenoids

>  <np_classifier_class>  (137) 
Limonoids

>  <np_classifier_is_glycoside>  (137) 
False

>  <organisms>  (137) 
Swietenia humilis

>  <collections>  (137) 
BIOFACQUIM|Latin America dataset

>  <dois>  (137) 
10.1016/j.phytochem.2014.11.004

>  <synonyms>  (137) 
Humilinolide C

>  <cas>  (137) 
nan

$$$$

     RDKit          2D

 17 18  0  0  0  0  0  0  0  0999 V2000
    3.1674   -2.4379    0.0000 C   0  0  0  0  0  0  0  0  0  0  0  0
    3.1935   -0.9382    0.0000 C   0  0  0  0  0  0  0  0  0  0  0  0
    4.5054   -0.2109    0.0000 C   0  0  0  0  0  0  0  0  0  0  0  0
    1.9078   -0.1656    0.0000 C   0  0  0  0  0  0  0  0  0  0  0  0
    0.5958   -0.8929    0.0000 C   0  0  0  0  0  0  0  0  0  0  0  0
   -0.6899   -0.1203    0.0000 C   0  0  0  0  0  0  0  0  0  0  0  0
   -0.7161   -1.6201    0.0000 C   0  0  0  0  0  0  0  0  0  0  0  0
   -0.6638    1.3794    0.0000 C   0  0  0  0  0  0  0  0  0  0  0  0
    0.6481    2.1067    0.0000 C   0  0  0  0  0  0  0  0  0  0  0  0
    1.9339    1.3341    0.0000 C   0  0  0  0  0  0  0  0  0  0  0  0
    3.2458    2.0614    0.0000 O   0  0  0  0  0  0  0  0  0  0  0  0
   -1.9496    2.1520    0.0000 C   0  0  0  0  0  0  0  0  0  0  0  0
   -3.2615    1.4247    0.0000 C   0  0  0  0  0  0  0  0  0  0  0  0
   -3.2876   -0.0751    0.0000 C   0  0  0  0  0  0  0  0  0  0  0  0
   -4.5995   -0.8023    0.0000 O   0  0  0  0  0  0  0  0  0  0  0  0
   -2.0018   -0.8476    0.0000 C   0  0  0  0  0  0  0  0  0  0  0  0
   -2.0280   -2.3474    0.0000 C   0  0  0  0  0  0  0  0  0  0  0  0
  1  2  1  0
  2  3  1  0
  2  4  2  0
  4  5  1  0
  5  6  1  0
  6  7  1  1
  6  8  1  0
  8  9  2  0
  9 10  1  0
 10 11  2  0
  8 12  1  0
 12 13  1  0
 13 14  1  0
 14 15  1  6
 14 16  1  0
 16 17  1  1
 10  4  1  0
 16  6  1  0
M  END
>  <identifier>  (138) 
CNP0295018.1

>  <canonical_smiles>  (138) 
CC(C)=C1C[C@@]2(C)C(=CC1=O)CC[C@@H](O)[C@@H]2C

>  <standard_inchi>  (138) 
InChI=1S/C15H22O2/c1-9(2)12-8-15(4)10(3)13(16)6-5-11(15)7-14(12)17/h7,10,13,16H,5-6,8H2,1-4H3/t10-,13+,15+/m0/s1

>  <standard_inchi_key>  (138) 
TVDMUSYVWJLIDK-PSOPSSQASA-N

>  <name>  (138) 
ISOPETASOL

>  <iupac_name>  (138) 
(4~{a}~{R},5~{R},6~{R})-6-hydroxy-3-isopropylidene-4~{a},5-dimethyl-5,6,7,8-tetrahydro-4~{H}-naphthalen-2-one

>  <annotation_level>  (138) 
5

>  <total_atom_count>  (138) 
39

>  <heavy_atom_count>  (138) 
17

>  <molecular_weight>  (138) 
234.34

>  <exact_molecular_weight>  (138) 
234.16198

>  <molecular_formula>  (138) 
C15H22O2

>  <alogp>  (138) 
3.02

>  <topological_polar_surface_area>  (138) 
37.30

>  <rotatable_bond_count>  (138) 
0

>  <hydrogen_bond_acceptors>  (138) 
2

>  <hydrogen_bond_donors>  (138) 
1

>  <hydrogen_bond_acceptors_lipinski>  (138) 
2

>  <hydrogen_bond_donors_lipinski>  (138) 
1

>  <lipinski_rule_of_five_violations>  (138) 
0

>  <aromatic_rings_count>  (138) 
0

>  <qed_drug_likeliness>  (138) 
0.65

>  <formal_charge>  (138) 
0

>  <fractioncsp3>  (138) 
0.67

>  <number_of_minimal_rings>  (138) 
2

>  <van_der_walls_volume>  (138) 
235.53

>  <contains_sugar>  (138) 
False

>  <contains_ring_sugars>  (138) 
False

>  <contains_linear_sugars>  (138) 
False

>  <murcko_framework>  (138) 
C1=C2CCCCC2CCC1

>  <np_likeness>  (138) 
2.92

>  <chemical_class>  (138) 
Prenol lipids

>  <chemical_sub_class>  (138) 
Sesquiterpenoids

>  <chemical_super_class>  (138) 
Lipids and lipid-like molecules

>  <direct_parent_classification>  (138) 
Eremophilane, 8,9-secoeremophilane and furoeremophilane sesquiterpenoids

>  <np_classifier_pathway>  (138) 
Terpenoids

>  <np_classifier_superclass>  (138) 
Sesquiterpenoids

>  <np_classifier_class>  (138) 
Eremophilane sesquiterpenoids

>  <np_classifier_is_glycoside>  (138) 
False

>  <organisms>  (138) 
Penicillium sp. G1-a14|Petasites fragrans

>  <collections>  (138) 
AnalytiCon Discovery NPs|BIOFACQUIM|GNPS (Global Natural Products Social Molecular Networking)|KNApSaCK|Latin America dataset|NPEdia|Super Natural II|ZINC NP

>  <dois>  (138) 
10.1021/np5009224

>  <synonyms>  (138) 
(+)-Isopetasol|469-67-0|UNII-3612JYH60G|3612JYH60G|Eremophila-7(11)|9-dien-8-one| 3alpha-hydroxy-|(4aR|5R|6R)-6-hydroxy-4a|5-dimethyl-3-propan-2-ylidene-5|6|7|8-tetrahydro-4H-naphthalen-2-one|2(3H)-NAPHTHALENONE| 4|4A|5|6|7|8-HEXAHYDRO-6-HYDROXY-4A|5-DIMETHYL-3-(1-METHYLETHYLIDENE)-| (4AR|5R|6R)-|CHEBI:181653|AKOS040734884|NCGC00381379-01|Q27256502|EREMOPHILA-7(11)|9-DIEN-8-ONE| 3.ALPHA.-HYDROXY-|2(3H)-NAPHTHALENONE| 4|4A|5|6|7|8-HEXAHYDRO-6-HYDROXY-4A|5-DIMETHYL-3-(1-METHYLETHYLIDENE)-| (4AR-(4A.ALPHA.|5.ALPHA.|6.BETA.))-|NCGC00381379-01_C15H22O2_(4aR|5R|6R)-6-Hydroxy-3-isopropylidene-4a|5-dimethyl-4|4a|5|6|7|8-hexahydro-2(3H)-naphthalenone|Isopetasol

>  <cas>  (138) 
469-67-0

$$$$

     RDKit          2D

 41 46  0  0  0  0  0  0  0  0999 V2000
    0.2558    6.7602    0.0000 C   0  0  0  0  0  0  0  0  0  0  0  0
   -1.0187    5.9691    0.0000 O   0  0  0  0  0  0  0  0  0  0  0  0
   -0.9709    4.4699    0.0000 C   0  0  0  0  0  0  0  0  0  0  0  0
    0.3514    3.7617    0.0000 O   0  0  0  0  0  0  0  0  0  0  0  0
   -2.2454    3.6789    0.0000 C   0  0  0  0  0  0  0  0  0  0  0  0
   -2.1976    2.1796    0.0000 C   0  0  0  0  0  0  0  0  0  0  0  0
   -3.4720    1.3886    0.0000 C   0  0  0  0  0  0  0  0  0  0  0  0
   -4.0297    2.7811    0.0000 C   0  0  0  0  0  0  0  0  0  0  0  0
   -4.9402    1.0812    0.0000 C   0  0  0  0  0  0  0  0  0  0  0  0
   -3.4242   -0.1106    0.0000 C   0  0  0  0  0  0  0  0  0  0  0  0
   -4.6987   -0.9016    0.0000 O   0  0  0  0  0  0  0  0  0  0  0  0
   -4.6509   -2.4009    0.0000 C   0  0  0  0  0  0  0  0  0  0  0  0
   -3.3286   -3.1091    0.0000 O   0  0  0  0  0  0  0  0  0  0  0  0
   -5.9254   -3.1919    0.0000 C   0  0  0  0  0  0  0  0  0  0  0  0
   -5.8776   -4.6911    0.0000 C   0  0  0  0  0  0  0  0  0  0  0  0
   -7.2477   -2.4837    0.0000 C   0  0  0  0  0  0  0  0  0  0  0  0
   -2.1020   -0.8188    0.0000 C   0  0  0  0  0  0  0  0  0  0  0  0
   -3.3764   -1.6098    0.0000 O   0  0  0  0  0  0  0  0  0  0  0  0
   -2.1498    0.6804    0.0000 C   0  0  0  0  0  0  0  0  0  0  0  0
   -2.9227    0.8756    0.0000 O   0  0  0  0  0  0  0  0  0  0  0  0
   -0.8753    1.4714    0.0000 C   0  0  0  0  0  0  0  0  0  0  0  0
   -0.9231    2.9707    0.0000 C   0  0  0  0  0  0  0  0  0  0  0  0
    0.4470    0.7632    0.0000 C   0  0  0  0  0  0  0  0  0  0  0  0
    1.7215    1.5542    0.0000 C   0  0  0  0  0  0  0  0  0  0  0  0
    3.0438    0.8460    0.0000 C   0  0  0  0  0  0  0  0  0  0  0  0
    3.0916   -0.6532    0.0000 C   0  0  0  0  0  0  0  0  0  0  0  0
    4.3660    0.1378    0.0000 C   0  0  0  0  0  0  0  0  0  0  0  0
    1.8171   -1.4443    0.0000 C   0  0  0  0  0  0  0  0  0  0  0  0
    1.8649   -2.9435    0.0000 C   0  0  0  0  0  0  0  0  0  0  0  0
    3.1872   -3.6517    0.0000 C   0  0  0  0  0  0  0  0  0  0  0  0
    3.2350   -5.1510    0.0000 O   0  0  0  0  0  0  0  0  0  0  0  0
    4.4616   -2.8607    0.0000 O   0  0  0  0  0  0  0  0  0  0  0  0
    4.4138   -1.3615    0.0000 C   0  0  0  0  0  0  0  0  0  0  0  0
    5.6883   -0.5704    0.0000 C   0  0  0  0  0  0  0  0  0  0  0  0
    5.7975    0.9256    0.0000 C   0  0  0  0  0  0  0  0  0  0  0  0
    7.2540    1.2840    0.0000 O   0  0  0  0  0  0  0  0  0  0  0  0
    8.0450    0.0096    0.0000 C   0  0  0  0  0  0  0  0  0  0  0  0
    7.0774   -1.1366    0.0000 C   0  0  0  0  0  0  0  0  0  0  0  0
    0.4948   -0.7360    0.0000 C   0  0  0  0  0  0  0  0  0  0  0  0
    0.5426   -2.2353    0.0000 O   0  0  0  0  0  0  0  0  0  0  0  0
   -0.7797   -1.5271    0.0000 C   0  0  0  0  0  0  0  0  0  0  0  0
  1  2  1  0
  2  3  1  0
  3  4  2  0
  3  5  1  0
  6  5  1  6
  6  7  1  0
  7  8  1  0
  7  9  1  0
  7 10  1  0
 10 11  1  1
 11 12  1  0
 12 13  2  0
 12 14  1  0
 14 15  1  0
 14 16  1  0
 10 17  1  0
 17 18  1  6
 17 19  1  0
 19 20  2  0
 19 21  1  0
 21 22  1  6
 21 23  1  0
 23 24  1  0
 24 25  1  0
 25 26  1  0
 26 27  1  6
 26 28  1  0
 28 29  1  0
 29 30  1  0
 30 31  2  0
 30 32  1  0
 32 33  1  0
 33 34  1  6
 34 35  2  0
 35 36  1  0
 36 37  1  0
 37 38  2  0
 28 39  1  0
 39 40  1  6
 41 40  1  6
 21  6  1  0
 39 23  1  0
 41 17  1  0
 33 26  1  0
 38 34  1  0
 41 39  1  0
M  END
>  <identifier>  (139) 
CNP0120417.1

>  <canonical_smiles>  (139) 
COC(=O)C[C@H]1C(C)(C)[C@H](OC(=O)C(C)C)[C@@]2(O)C(=O)[C@]1(C)C1CC[C@]3(C)C(CC(=O)O[C@H]3C3=COC=C3)[C@]13O[C@@H]32

>  <standard_inchi>  (139) 
InChI=1S/C31H40O10/c1-15(2)23(34)40-25-27(3,4)18(12-20(32)37-7)29(6)17-8-10-28(5)19(31(17)26(41-31)30(25,36)24(29)35)13-21(33)39-22(28)16-9-11-38-14-16/h9,11,14-15,17-19,22,25-26,36H,8,10,12-13H2,1-7H3/t17?,18-,19?,22-,25-,26+,28+,29+,30-,31+/m0/s1

>  <standard_inchi_key>  (139) 
LOOFGUAWTZPQEG-BWSSPMROSA-N

>  <name>  (139) 
Humilin B

>  <iupac_name>  (139) 
[(1~{S},2~{R},4~{S},9~{R},10~{R},14~{S},15~{S},17~{S})-9-(3-furyl)-1-hydroxy-15-(2-methoxy-2-oxo-ethyl)-10,14,16,16-tetramethyl-7,18-dioxo-3,8-dioxapentacyclo[12.3.1.0^{2,4}.0^{4,13}.0^{5,10}]octadecan-17-yl] 2-methylpropanoate

>  <annotation_level>  (139) 
5

>  <total_atom_count>  (139) 
81

>  <heavy_atom_count>  (139) 
41

>  <molecular_weight>  (139) 
572.65

>  <exact_molecular_weight>  (139) 
572.26215

>  <molecular_formula>  (139) 
C31H40O10

>  <alogp>  (139) 
3.54

>  <topological_polar_surface_area>  (139) 
141.87

>  <rotatable_bond_count>  (139) 
5

>  <hydrogen_bond_acceptors>  (139) 
10

>  <hydrogen_bond_donors>  (139) 
1

>  <hydrogen_bond_acceptors_lipinski>  (139) 
10

>  <hydrogen_bond_donors_lipinski>  (139) 
1

>  <lipinski_rule_of_five_violations>  (139) 
1

>  <aromatic_rings_count>  (139) 
1

>  <qed_drug_likeliness>  (139) 
0.32

>  <formal_charge>  (139) 
0

>  <fractioncsp3>  (139) 
0.74

>  <number_of_minimal_rings>  (139) 
6

>  <van_der_walls_volume>  (139) 
511.03

>  <contains_sugar>  (139) 
False

>  <contains_ring_sugars>  (139) 
False

>  <contains_linear_sugars>  (139) 
False

>  <murcko_framework>  (139) 
o1ccc(c1)C2OCCC3C2CCC4C5CCCC(C5)C6OC643

>  <np_likeness>  (139) 
2.82

>  <chemical_class>  (139) 
Prenol lipids

>  <chemical_sub_class>  (139) 
Triterpenoids

>  <chemical_super_class>  (139) 
Lipids and lipid-like molecules

>  <direct_parent_classification>  (139) 
Limonoids

>  <np_classifier_pathway>  (139) 
Terpenoids

>  <np_classifier_superclass>  (139) 
Triterpenoids

>  <np_classifier_class>  (139) 
Limonoids

>  <np_classifier_is_glycoside>  (139) 
False

>  <organisms>  (139) 
Owenia acidula|Swietenia humilis

>  <collections>  (139) 
Australian natural products|BIOFACQUIM|GNPS (Global Natural Products Social Molecular Networking)|Latin America dataset

>  <dois>  (139) 
10.1016/0031-9422(92)80434-g|10.1016/j.phytochem.2014.11.004

>  <synonyms>  (139) 
CHEBI:182845|NCGC00380937-01_C31H40O10_(1S|2R|4S|9R|10R|14S|15S|17S)-9-(3-Furyl)-1-hydroxy-15-(2-methoxy-2-oxoethyl)-10|14|16|16-tetramethyl-7|18-dioxo-3|8-dioxapentacyclo12.3.1.0~2|4~.0~4|13~.0~5|10~octadec-17-yl 2-methylpropanoate|NCGC00380937-01|(1S|2R|4S|9R|10R|14S|15S|17S)-9-(uran-3-yl)-1-hydroxy-15-(2-methoxy-2-oxoethyl)-10|14|16|16-tetramethyl-7|18-dioxo-3|8-dioxapentacyclo12.3.1.02|4.04|13.05|10octadecan-17-yl 2-methylpropanoate|Methyl-2-hydroxy-3-b-isobutyoyl-8a 30a-epoxy-1-oxo-meliacate|humilin B

>  <cas>  (139) 
nan

$$$$

     RDKit          2D

 44 49  0  0  0  0  0  0  0  0999 V2000
    0.2644    6.7332    0.0000 C   0  0  0  0  0  0  0  0  0  0  0  0
   -0.9602    5.8671    0.0000 O   0  0  0  0  0  0  0  0  0  0  0  0
   -0.8224    4.3734    0.0000 C   0  0  0  0  0  0  0  0  0  0  0  0
    0.5400    3.7459    0.0000 O   0  0  0  0  0  0  0  0  0  0  0  0
   -2.0471    3.5073    0.0000 C   0  0  0  0  0  0  0  0  0  0  0  0
   -1.9093    2.0136    0.0000 C   0  0  0  0  0  0  0  0  0  0  0  0
   -3.1339    1.1474    0.0000 C   0  0  0  0  0  0  0  0  0  0  0  0
   -3.7743    2.5039    0.0000 C   0  0  0  0  0  0  0  0  0  0  0  0
   -4.5810    0.7524    0.0000 C   0  0  0  0  0  0  0  0  0  0  0  0
   -2.9961   -0.3462    0.0000 C   0  0  0  0  0  0  0  0  0  0  0  0
   -4.2208   -1.2124    0.0000 O   0  0  0  0  0  0  0  0  0  0  0  0
   -5.5832   -0.5849    0.0000 C   0  0  0  0  0  0  0  0  0  0  0  0
   -5.7210    0.9088    0.0000 O   0  0  0  0  0  0  0  0  0  0  0  0
   -6.8079   -1.4511    0.0000 C   0  0  0  0  0  0  0  0  0  0  0  0
   -8.1703   -0.8236    0.0000 C   0  0  0  0  0  0  0  0  0  0  0  0
   -6.6701   -2.9447    0.0000 C   0  0  0  0  0  0  0  0  0  0  0  0
   -1.6337   -0.9737    0.0000 C   0  0  0  0  0  0  0  0  0  0  0  0
   -2.8583   -1.8399    0.0000 O   0  0  0  0  0  0  0  0  0  0  0  0
   -2.7206   -3.3335    0.0000 C   0  0  0  0  0  0  0  0  0  0  0  0
   -3.9452   -4.1997    0.0000 C   0  0  0  0  0  0  0  0  0  0  0  0
   -1.3581   -3.9610    0.0000 O   0  0  0  0  0  0  0  0  0  0  0  0
   -1.7715    0.5199    0.0000 C   0  0  0  0  0  0  0  0  0  0  0  0
   -2.5547    0.6683    0.0000 O   0  0  0  0  0  0  0  0  0  0  0  0
   -0.5469    1.3861    0.0000 C   0  0  0  0  0  0  0  0  0  0  0  0
   -0.6846    2.8798    0.0000 C   0  0  0  0  0  0  0  0  0  0  0  0
    0.8156    0.7586    0.0000 C   0  0  0  0  0  0  0  0  0  0  0  0
    2.0402    1.6248    0.0000 C   0  0  0  0  0  0  0  0  0  0  0  0
    3.4027    0.9973    0.0000 C   0  0  0  0  0  0  0  0  0  0  0  0
    3.5405   -0.4964    0.0000 C   0  0  0  0  0  0  0  0  0  0  0  0
    4.7651    0.3698    0.0000 C   0  0  0  0  0  0  0  0  0  0  0  0
    2.3158   -1.3625    0.0000 C   0  0  0  0  0  0  0  0  0  0  0  0
    2.4536   -2.8562    0.0000 C   0  0  0  0  0  0  0  0  0  0  0  0
    3.8161   -3.4837    0.0000 C   0  0  0  0  0  0  0  0  0  0  0  0
    3.9539   -4.9773    0.0000 O   0  0  0  0  0  0  0  0  0  0  0  0
    5.0407   -2.6175    0.0000 O   0  0  0  0  0  0  0  0  0  0  0  0
    4.9029   -1.1239    0.0000 C   0  0  0  0  0  0  0  0  0  0  0  0
    6.1276   -0.2577    0.0000 C   0  0  0  0  0  0  0  0  0  0  0  0
    6.1467    1.2422    0.0000 C   0  0  0  0  0  0  0  0  0  0  0  0
    7.5790    1.6875    0.0000 O   0  0  0  0  0  0  0  0  0  0  0  0
    8.4452    0.4629    0.0000 C   0  0  0  0  0  0  0  0  0  0  0  0
    7.5481   -0.7393    0.0000 C   0  0  0  0  0  0  0  0  0  0  0  0
    0.9534   -0.7350    0.0000 C   0  0  0  0  0  0  0  0  0  0  0  0
    1.0912   -2.2287    0.0000 O   0  0  0  0  0  0  0  0  0  0  0  0
   -0.2713   -1.6012    0.0000 C   0  0  0  0  0  0  0  0  0  0  0  0
  1  2  1  0
  2  3  1  0
  3  4  2  0
  3  5  1  0
  6  5  1  6
  6  7  1  0
  7  8  1  0
  7  9  1  0
  7 10  1  0
 10 11  1  1
 11 12  1  0
 12 13  2  0
 12 14  1  0
 14 15  1  0
 14 16  1  0
 10 17  1  0
 17 18  1  6
 18 19  1  0
 19 20  1  0
 19 21  2  0
 17 22  1  0
 22 23  2  0
 22 24  1  0
 24 25  1  6
 24 26  1  0
 26 27  1  0
 27 28  1  0
 28 29  1  0
 29 30  1  6
 29 31  1  0
 31 32  1  0
 32 33  1  0
 33 34  2  0
 33 35  1  0
 35 36  1  0
 36 37  1  6
 37 38  2  0
 38 39  1  0
 39 40  1  0
 40 41  2  0
 31 42  1  0
 42 43  1  6
 44 43  1  6
 24  6  1  0
 42 26  1  0
 44 17  1  0
 36 29  1  0
 41 37  1  0
 44 42  1  0
M  END
>  <identifier>  (140) 
CNP0151522.1

>  <canonical_smiles>  (140) 
COC(=O)C[C@H]1C(C)(C)[C@H](OC(=O)C(C)C)[C@@]2(OC(C)=O)C(=O)[C@]1(C)C1CC[C@]3(C)C(CC(=O)O[C@H]3C3=COC=C3)[C@]13O[C@@H]32

>  <standard_inchi>  (140) 
InChI=1S/C33H42O11/c1-16(2)25(37)42-27-29(4,5)20(13-22(35)39-8)31(7)19-9-11-30(6)21(14-23(36)41-24(30)18-10-12-40-15-18)32(19)28(44-32)33(27,26(31)38)43-17(3)34/h10,12,15-16,19-21,24,27-28H,9,11,13-14H2,1-8H3/t19?,20-,21?,24-,27-,28-,30+,31+,32+,33-/m0/s1

>  <standard_inchi_key>  (140) 
COKNSFVQXLZHTF-YZMSHABZSA-N

>  <name>  (140) 
nan

>  <iupac_name>  (140) 
[(1~{S},2~{S},4~{S},9~{R},10~{R},14~{S},15~{S},17~{S})-1-acetoxy-9-(3-furyl)-15-(2-methoxy-2-oxo-ethyl)-10,14,16,16-tetramethyl-7,18-dioxo-3,8-dioxapentacyclo[12.3.1.0^{2,4}.0^{4,13}.0^{5,10}]octadecan-17-yl] 2-methylpropanoate

>  <annotation_level>  (140) 
5

>  <total_atom_count>  (140) 
86

>  <heavy_atom_count>  (140) 
44

>  <molecular_weight>  (140) 
614.69

>  <exact_molecular_weight>  (140) 
614.27271

>  <molecular_formula>  (140) 
C33H42O11

>  <alogp>  (140) 
4.12

>  <topological_polar_surface_area>  (140) 
147.94

>  <rotatable_bond_count>  (140) 
6

>  <hydrogen_bond_acceptors>  (140) 
11

>  <hydrogen_bond_donors>  (140) 
0

>  <hydrogen_bond_acceptors_lipinski>  (140) 
11

>  <hydrogen_bond_donors_lipinski>  (140) 
0

>  <lipinski_rule_of_five_violations>  (140) 
2

>  <aromatic_rings_count>  (140) 
1

>  <qed_drug_likeliness>  (140) 
0.26

>  <formal_charge>  (140) 
0

>  <fractioncsp3>  (140) 
0.73

>  <number_of_minimal_rings>  (140) 
6

>  <van_der_walls_volume>  (140) 
544.46

>  <contains_sugar>  (140) 
False

>  <contains_ring_sugars>  (140) 
False

>  <contains_linear_sugars>  (140) 
False

>  <murcko_framework>  (140) 
o1ccc(c1)C2OCCC3C2CCC4C5CCCC(C5)C6OC643

>  <np_likeness>  (140) 
2.58

>  <chemical_class>  (140) 
Prenol lipids

>  <chemical_sub_class>  (140) 
Triterpenoids

>  <chemical_super_class>  (140) 
Lipids and lipid-like molecules

>  <direct_parent_classification>  (140) 
Limonoids

>  <np_classifier_pathway>  (140) 
Terpenoids

>  <np_classifier_superclass>  (140) 
Triterpenoids

>  <np_classifier_class>  (140) 
Limonoids

>  <np_classifier_is_glycoside>  (140) 
False

>  <organisms>  (140) 
Swietenia humilis

>  <collections>  (140) 
BIOFACQUIM|Latin America dataset

>  <dois>  (140) 
10.1016/j.phytochem.2014.11.004

>  <synonyms>  (140) 
Humilinolide H

>  <cas>  (140) 
nan

$$$$

     RDKit          2D

 29 30  0  0  0  0  0  0  0  0999 V2000
    3.3668   -3.6272    0.0000 C   0  0  0  0  0  0  0  0  0  0  0  0
    3.6573   -2.1556    0.0000 C   0  0  0  0  0  0  0  0  0  0  0  0
    5.0770   -1.6713    0.0000 C   0  0  0  0  0  0  0  0  0  0  0  0
    2.5281   -1.1682    0.0000 C   0  0  0  0  0  0  0  0  0  0  0  0
    3.1660    0.1894    0.0000 O   0  0  0  0  0  0  0  0  0  0  0  0
    1.1084   -1.6525    0.0000 O   0  0  0  0  0  0  0  0  0  0  0  0
   -0.0208   -0.6651    0.0000 C   0  0  0  0  0  0  0  0  0  0  0  0
   -1.3088   -1.4340    0.0000 C   0  0  0  0  0  0  0  0  0  0  0  0
   -0.9756   -2.8965    0.0000 C   0  0  0  0  0  0  0  0  0  0  0  0
    0.4035   -3.4866    0.0000 C   0  0  0  0  0  0  0  0  0  0  0  0
   -2.2636   -3.6653    0.0000 C   0  0  0  0  0  0  0  0  0  0  0  0
   -2.3986   -5.1592    0.0000 O   0  0  0  0  0  0  0  0  0  0  0  0
   -3.3928   -2.6780    0.0000 O   0  0  0  0  0  0  0  0  0  0  0  0
   -2.8027   -1.2989    0.0000 C   0  0  0  0  0  0  0  0  0  0  0  0
   -3.9319   -0.3115    0.0000 C   0  0  0  0  0  0  0  0  0  0  0  0
   -4.2651    1.1510    0.0000 C   0  0  0  0  0  0  0  0  0  0  0  0
   -5.7590    1.2860    0.0000 C   0  0  0  0  0  0  0  0  0  0  0  0
   -3.6750    2.5300    0.0000 C   0  0  0  0  0  0  0  0  0  0  0  0
   -2.3870    3.2989    0.0000 C   0  0  0  0  0  0  0  0  0  0  0  0
   -0.8931    3.1638    0.0000 C   0  0  0  0  0  0  0  0  0  0  0  0
   -0.3031    4.5429    0.0000 O   0  0  0  0  0  0  0  0  0  0  0  0
    0.2361    2.1765    0.0000 C   0  0  0  0  0  0  0  0  0  0  0  0
    0.8262    3.5555    0.0000 C   0  0  0  0  0  0  0  0  0  0  0  0
    1.7300    2.0414    0.0000 O   0  0  0  0  0  0  0  0  0  0  0  0
    0.5693    0.7139    0.0000 C   0  0  0  0  0  0  0  0  0  0  0  0
    2.0632    0.5789    0.0000 O   0  0  0  0  0  0  0  0  0  0  0  0
    2.9271    1.8051    0.0000 C   0  0  0  0  0  0  0  0  0  0  0  0
    4.4210    1.6701    0.0000 C   0  0  0  0  0  0  0  0  0  0  0  0
    2.2971    3.1664    0.0000 O   0  0  0  0  0  0  0  0  0  0  0  0
  1  2  2  0
  2  3  1  0
  2  4  1  0
  4  5  2  0
  4  6  1  0
  7  6  1  1
  7  8  1  0
  8  9  1  1
  9 10  2  0
  9 11  1  0
 11 12  2  0
 11 13  1  0
 13 14  1  0
 14 15  1  6
 15 16  1  0
 16 17  1  1
 16 18  1  0
 18 19  2  0
 19 20  1  0
 20 21  2  0
 20 22  1  0
 22 23  1  1
 22 24  1  0
 22 25  1  0
 25 26  1  6
 26 27  1  0
 27 28  1  0
 27 29  2  0
 25  7  1  0
 14  8  1  0
M  END
>  <identifier>  (141) 
CNP0273043.1

>  <canonical_smiles>  (141) 
C=C(C)C(=O)O[C@H]1[C@H]2C(=C)C(=O)O[C@@H]2C[C@@H](C)/C=C\C(=O)[C@](C)(O)[C@@H]1OC(C)=O

>  <standard_inchi>  (141) 
InChI=1S/C21H26O8/c1-10(2)19(24)29-17-16-12(4)20(25)28-14(16)9-11(3)7-8-15(23)21(6,26)18(17)27-13(5)22/h7-8,11,14,16-18,26H,1,4,9H2,2-3,5-6H3/b8-7-/t11-,14+,16-,17-,18+,21-/m0/s1

>  <standard_inchi_key>  (141) 
COWWBPRRBQOULA-NABHEWRGSA-N

>  <name>  (141) 
MEGxp0_000960

>  <iupac_name>  (141) 
[(3~{a}~{S},4~{S},5~{R},6~{R},8~{Z},10~{R},11~{a}~{R})-5-acetoxy-6-hydroxy-6,10-dimethyl-3-methylene-2,7-dioxo-3~{a},4,5,10,11,11~{a}-hexahydrocyclodeca[b]furan-4-yl] 2-methylprop-2-enoate

>  <annotation_level>  (141) 
5

>  <total_atom_count>  (141) 
55

>  <heavy_atom_count>  (141) 
29

>  <molecular_weight>  (141) 
406.43

>  <exact_molecular_weight>  (141) 
406.16277

>  <molecular_formula>  (141) 
C21H26O8

>  <alogp>  (141) 
1.42

>  <topological_polar_surface_area>  (141) 
116.20

>  <rotatable_bond_count>  (141) 
3

>  <hydrogen_bond_acceptors>  (141) 
8

>  <hydrogen_bond_donors>  (141) 
1

>  <hydrogen_bond_acceptors_lipinski>  (141) 
8

>  <hydrogen_bond_donors_lipinski>  (141) 
1

>  <lipinski_rule_of_five_violations>  (141) 
0

>  <aromatic_rings_count>  (141) 
0

>  <qed_drug_likeliness>  (141) 
0.42

>  <formal_charge>  (141) 
0

>  <fractioncsp3>  (141) 
0.52

>  <number_of_minimal_rings>  (141) 
2

>  <van_der_walls_volume>  (141) 
365.70

>  <contains_sugar>  (141) 
False

>  <contains_ring_sugars>  (141) 
False

>  <contains_linear_sugars>  (141) 
False

>  <murcko_framework>  (141) 
O1CCC2CCCCC=CCCC12

>  <np_likeness>  (141) 
3.17

>  <chemical_class>  (141) 
Prenol lipids

>  <chemical_sub_class>  (141) 
Terpene lactones

>  <chemical_super_class>  (141) 
Lipids and lipid-like molecules

>  <direct_parent_classification>  (141) 
Germacranolides and derivatives

>  <np_classifier_pathway>  (141) 
Terpenoids

>  <np_classifier_superclass>  (141) 
Sesquiterpenoids

>  <np_classifier_class>  (141) 
Germacrane sesquiterpenoids

>  <np_classifier_is_glycoside>  (141) 
False

>  <organisms>  (141) 
Calea ternifolia

>  <collections>  (141) 
BIOFACQUIM|GNPS (Global Natural Products Social Molecular Networking)|Latin America dataset|NPEdia|Super Natural II|ZINC NP

>  <dois>  (141) 
10.3390/molecules22020289

>  <synonyms>  (141) 
ACon1_000939|CHEBI:182236|NCGC00169210-01|(3aS|4S|5R|6R|8Z|10R|11aR)-5-acetyloxy-6-hydroxy-6|10-dimethyl-3-methylidene-2|7-dioxo-3a|4|5|10|11|11a-hexahydrocyclodecabfuran-4-yl 2-methylprop-2-enoate|NCGC00169210-02_C21H26O8_2-Propenoic acid| 2-methyl-| (3aS|4S|5R|6R|8Z|10R|11aR)-5-(acetyloxy)-2|3|3a|4|5|6|7|10|11|11a-decahydro-6-hydroxy-6|10-dimethyl-3-methylene-2|7-dioxocyclodecabfuran-4-yl ester|Caleins A|Calein C

>  <cas>  (141) 
nan

$$$$

     RDKit          2D

 17 18  0  0  0  0  0  0  0  0999 V2000
   -4.4567    1.1606    0.0000 C   0  0  0  0  0  0  0  0  0  0  0  0
   -3.8496   -0.2110    0.0000 C   0  0  0  0  0  0  0  0  0  0  0  0
   -4.7339   -1.4226    0.0000 O   0  0  0  0  0  0  0  0  0  0  0  0
   -2.3581   -0.3711    0.0000 C   0  0  0  0  0  0  0  0  0  0  0  0
   -1.7510   -1.7427    0.0000 C   0  0  0  0  0  0  0  0  0  0  0  0
   -0.2596   -1.9027    0.0000 C   0  0  0  0  0  0  0  0  0  0  0  0
    0.6247   -0.6911    0.0000 C   0  0  0  0  0  0  0  0  0  0  0  0
    2.1162   -0.8512    0.0000 O   0  0  0  0  0  0  0  0  0  0  0  0
    3.0005    0.3605    0.0000 C   0  0  0  0  0  0  0  0  0  0  0  0
    4.2459    1.1965    0.0000 C   0  0  0  0  0  0  0  0  0  0  0  0
    4.0401   -0.7208    0.0000 C   0  0  0  0  0  0  0  0  0  0  0  0
    3.6235   -2.1618    0.0000 O   0  0  0  0  0  0  0  0  0  0  0  0
    2.3934    1.7321    0.0000 C   0  0  0  0  0  0  0  0  0  0  0  0
    0.9019    1.8921    0.0000 C   0  0  0  0  0  0  0  0  0  0  0  0
    0.0176    0.6805    0.0000 C   0  0  0  0  0  0  0  0  0  0  0  0
   -1.4738    0.8405    0.0000 C   0  0  0  0  0  0  0  0  0  0  0  0
   -2.0810    2.2122    0.0000 O   0  0  0  0  0  0  0  0  0  0  0  0
  1  2  1  0
  2  3  2  0
  2  4  1  0
  4  5  2  0
  5  6  1  0
  6  7  2  0
  7  8  1  0
  8  9  1  0
  9 10  1  1
  9 11  1  0
 11 12  1  0
  9 13  1  0
 13 14  2  0
 14 15  1  0
 15 16  2  0
 16 17  1  0
 16  4  1  0
 15  7  1  0
M  END
>  <identifier>  (142) 
CNP0310271.1

>  <canonical_smiles>  (142) 
CC(=O)C1=CC=C2O[C@@](C)(CO)C=CC2=C1O

>  <standard_inchi>  (142) 
InChI=1S/C13H14O4/c1-8(15)9-3-4-11-10(12(9)16)5-6-13(2,7-14)17-11/h3-6,14,16H,7H2,1-2H3/t13-/m1/s1

>  <standard_inchi_key>  (142) 
JKVQMJIPYGVPFF-CYBMUJFWSA-N

>  <name>  (142) 
6-acetyl-5-hydroxy-2-hydroxymethyl-2-methyl-2H-chromene

>  <iupac_name>  (142) 
1-[(2~{R})-5-hydroxy-2-(hydroxymethyl)-2-methyl-chromen-6-yl]ethanone

>  <annotation_level>  (142) 
5

>  <total_atom_count>  (142) 
31

>  <heavy_atom_count>  (142) 
17

>  <molecular_weight>  (142) 
234.25

>  <exact_molecular_weight>  (142) 
234.08921

>  <molecular_formula>  (142) 
C13H14O4

>  <alogp>  (142) 
1.75

>  <topological_polar_surface_area>  (142) 
66.76

>  <rotatable_bond_count>  (142) 
2

>  <hydrogen_bond_acceptors>  (142) 
4

>  <hydrogen_bond_donors>  (142) 
2

>  <hydrogen_bond_acceptors_lipinski>  (142) 
4

>  <hydrogen_bond_donors_lipinski>  (142) 
2

>  <lipinski_rule_of_five_violations>  (142) 
0

>  <aromatic_rings_count>  (142) 
1

>  <qed_drug_likeliness>  (142) 
0.76

>  <formal_charge>  (142) 
0

>  <fractioncsp3>  (142) 
0.31

>  <number_of_minimal_rings>  (142) 
2

>  <van_der_walls_volume>  (142) 
209.50

>  <contains_sugar>  (142) 
False

>  <contains_ring_sugars>  (142) 
False

>  <contains_linear_sugars>  (142) 
False

>  <murcko_framework>  (142) 
O1c2ccccc2C=CC1

>  <np_likeness>  (142) 
2.54

>  <chemical_class>  (142) 
Benzopyrans

>  <chemical_sub_class>  (142) 
1-benzopyrans

>  <chemical_super_class>  (142) 
Organoheterocyclic compounds

>  <direct_parent_classification>  (142) 
1-benzopyrans

>  <np_classifier_pathway>  (142) 
nan

>  <np_classifier_superclass>  (142) 
nan

>  <np_classifier_class>  (142) 
nan

>  <np_classifier_is_glycoside>  (142) 
False

>  <organisms>  (142) 
Calea ternifolia

>  <collections>  (142) 
BIOFACQUIM

>  <dois>  (142) 
10.3390/molecules22020289

>  <synonyms>  (142) 
6-acetyl-5-hydroxy-2-hydroxymethyl-2-methyl-2H-chromene

>  <cas>  (142) 
nan

$$$$

     RDKit          2D

 13 14  0  0  0  0  0  0  0  0999 V2000
   -4.8090   -0.3033    0.0000 C   0  0  0  0  0  0  0  0  0  0  0  0
   -3.5354   -1.0957    0.0000 O   0  0  0  0  0  0  0  0  0  0  0  0
   -2.2124   -0.3889    0.0000 C   0  0  0  0  0  0  0  0  0  0  0  0
   -2.1630    1.1103    0.0000 C   0  0  0  0  0  0  0  0  0  0  0  0
   -0.8399    1.8171    0.0000 C   0  0  0  0  0  0  0  0  0  0  0  0
    0.4337    1.0247    0.0000 C   0  0  0  0  0  0  0  0  0  0  0  0
    1.7567    1.7315    0.0000 C   0  0  0  0  0  0  0  0  0  0  0  0
    3.0304    0.9392    0.0000 C   0  0  0  0  0  0  0  0  0  0  0  0
    2.9810   -0.5600    0.0000 C   0  0  0  0  0  0  0  0  0  0  0  0
    4.2546   -1.3524    0.0000 O   0  0  0  0  0  0  0  0  0  0  0  0
    1.6579   -1.2668    0.0000 O   0  0  0  0  0  0  0  0  0  0  0  0
    0.3843   -0.4745    0.0000 C   0  0  0  0  0  0  0  0  0  0  0  0
   -0.9388   -1.1813    0.0000 C   0  0  0  0  0  0  0  0  0  0  0  0
  1  2  1  0
  2  3  1  0
  3  4  2  0
  4  5  1  0
  5  6  2  0
  6  7  1  0
  7  8  2  0
  8  9  1  0
  9 10  2  0
  9 11  1  0
 11 12  1  0
 12 13  2  0
 13  3  1  0
 12  6  1  0
M  END
>  <identifier>  (143) 
CNP0107419.0

>  <canonical_smiles>  (143) 
COC1=CC=C2C=CC(=O)OC2=C1

>  <standard_inchi>  (143) 
InChI=1S/C10H8O3/c1-12-8-4-2-7-3-5-10(11)13-9(7)6-8/h2-6H,1H3

>  <standard_inchi_key>  (143) 
LIIALPBMIOVAHH-UHFFFAOYSA-N

>  <name>  (143) 
7-Methoxycoumarin

>  <iupac_name>  (143) 
7-methoxychromen-2-one

>  <annotation_level>  (143) 
5

>  <total_atom_count>  (143) 
21

>  <heavy_atom_count>  (143) 
13

>  <molecular_weight>  (143) 
176.17

>  <exact_molecular_weight>  (143) 
176.04734

>  <molecular_formula>  (143) 
C10H8O3

>  <alogp>  (143) 
1.80

>  <topological_polar_surface_area>  (143) 
39.44

>  <rotatable_bond_count>  (143) 
1

>  <hydrogen_bond_acceptors>  (143) 
3

>  <hydrogen_bond_donors>  (143) 
0

>  <hydrogen_bond_acceptors_lipinski>  (143) 
3

>  <hydrogen_bond_donors_lipinski>  (143) 
0

>  <lipinski_rule_of_five_violations>  (143) 
0

>  <aromatic_rings_count>  (143) 
2

>  <qed_drug_likeliness>  (143) 
0.62

>  <formal_charge>  (143) 
0

>  <fractioncsp3>  (143) 
0.10

>  <number_of_minimal_rings>  (143) 
2

>  <van_der_walls_volume>  (143) 
151.84

>  <contains_sugar>  (143) 
False

>  <contains_ring_sugars>  (143) 
False

>  <contains_linear_sugars>  (143) 
False

>  <murcko_framework>  (143) 
O1c2ccccc2C=CC1

>  <np_likeness>  (143) 
0.41

>  <chemical_class>  (143) 
Coumarins and derivatives

>  <chemical_sub_class>  (143) 
Coumarins and derivatives

>  <chemical_super_class>  (143) 
Phenylpropanoids and polyketides

>  <direct_parent_classification>  (143) 
Coumarins and derivatives

>  <np_classifier_pathway>  (143) 
Shikimates and Phenylpropanoids

>  <np_classifier_superclass>  (143) 
Coumarins

>  <np_classifier_class>  (143) 
Simple coumarins

>  <np_classifier_is_glycoside>  (143) 
False

>  <organisms>  (143) 
Adenia fruticosa|Adina cordifolia|Aeromonas hydrophila|Ajuga reptans|Althaea officinalis|Ancistrocladus korupensis|Aniba duckei|Apium graveolens|Armillaria tabescens|Artemisia anomala|Artemisia capillaris|Artemisia caucasica|Artemisia dracunculus|Artemisia lactiflora|Artemisia silvatica|Artemisia tolonifera|Aster ptarmicoides|Bothrops jararaca|Bupleurum salicifolium|Calea ternifolia|Calliandra eriophylla|Centrosema haitense|Clausena excavata|Comamonas testosteroni|Conyza bonariensis|Corydalis gigantea|Corydalis thalictrifolia|Crella incrustans|Descurainia sophia|Diaporthe amygdali|Dictamnus albus L.|Dictamnus angustifolius|Dictamnus gymnostylis|Dysosma delavayi|Echinochloa esculenta|Echinopepon bigelovii|Eupatorium ayapana|Eupatorium triplinerve|Exobasidium vaccinii|Ficus cunninghamii|Galium album|Girgensohnia diptera|Gomphostemma crinitum|Haminoea orbignyana|Herniaria glabra|Herniaria hirsuta|Hesperethusa crenulata|Hopea brevipetiolaris|Hydrangea chinensis|Hyphear tanakae|Isodon gesneroides|Lactarius vellereus|Lophozia floerkei|Maharanga bicolor|Mandragora autumnalis|Matricaria discoidea|Matricaria matricarioides|Matricaria pubescens|Millettia rubiginosa|Mosla japonica|Nama johnstonii|Nocardia pseudobrasiliensis|Odontocline hollickii|Osteospermum hyoseroides|Penicillium puberulum|Phytolacca thyrsiflora|Pinus massoniana|Plagiomnium undulatum|Polypodiodes formosana|Prunus mahaleb|Puccinia graminis|Rhinanthus glaber|Rhodopila globiformis|Rubus phoenicolasius|Ruta graveolens|Ruta graveolens L.|Ruta montana|Ruta pinnata|Salvia aegyptiaca|Santolina oblongifolia|Saussurea pulchella|Sedum cepaea|Smallanthus glabratus|Sophora davidii|Stephania hernandifolia|Streptomyces olivaceus|Syringa pinnafolia|Tagetes florida|Torricellia tiliifolia|Trichogonia grazielae|Urbanodendron verrucosum|Venus mercenaria|Virola sebifera|Xerula melanotricha|murraya alata

>  <collections>  (143) 
ANPDB|AnalytiCon Discovery NPs|Australian natural products|BIOFACQUIM|CMAUP (cCollective molecular activities of useful plants)|ChEBI NPs|ConMedNP|FooDB|HIM (Herbal Ingredients in-vivo Metabolism database)|KNApSaCK|Latin America dataset|NANPDB (Natural Products from Northern African Sources)|NPASS|NPEdia|Phyto4Health|PubChem NPs|Super Natural II|TCMDB-Taiwan (Traditional Chinese Medicine database)|TCMID (Traditional Chinese Medicine Integrated Database)|TIPdb (database of Taiwan indigenous plants)|TPPT (Toxic Plants–PhytoToxins)|UNPD (Universal Natural Products Database)|VietHerb

>  <dois>  (143) 
10.1002/biuz.19840140514|10.1002/food.19880321030|10.1016/S0031-9422(00)82632-1|10.1016/S0031-9422(01)00347-8|10.1016/s0031-9422(00)97294-7|10.1021/jf0259361|10.1071/ch9640975|10.3390/molecules22020289

>  <synonyms>  (143) 
Herniarin|531-59-9|7-Methoxy-2H-chromen-2-one|Ayapanin|Methylumbelliferone|7-methoxychromen-2-one|7-Methoxy-2H-1-benzopyran-2-one|Coumarin| 7-methoxy-|2H-1-BENZOPYRAN-2-ONE| 7-METHOXY-|METHOXYCOURMARIN| 7-|Methyl umbelliferyl ether|NSC 404559|7-(methyloxy)-2H-chromen-2-one|EINECS 208-513-3|UNII-DGK72G008A|7-methoxy-coumarin|7-Methoxy Coumarin|BRN 0141728|CHEBI:5679|DGK72G008A|Umbelliferone methyl ether|MFCD00006876|CHEMBL49732|5-18-01-00387 (Beilstein Handbook Reference)|7-Methoxycoumarin;Methyl umbelliferyl ether|7-Methyl ether derivative of Umbelliferone|7-Methoxycoumarin| >=98%|SMR000156201|Herniarin (6CI)|Herniarin|(S)|Spectrum_000392|SpecPlus_000322|Spectrum3_000263|Spectrum4_001558|Spectrum5_000156|7-METHOXYCOURMARIN|SCHEMBL61221|BSPBio_001706|KBioGR_002056|KBioSS_000872|SPECTRUM210874|MLS000563125|MLS000574914|DivK1c_006418|SPBio_000615|Coumarin| 7-methoxy- (8CI)|MEGxp0_000150|DTXSID5060196|ACon1_002037|KBio1_001362|KBio2_000872|KBio2_003440|KBio2_006008|KBio3_001206|HMS2271N13|HY-N1366|BDBM50303499|CCG-38669|STK374268|ZB1865|7-Methoxycoumarin| analytical standard|AKOS000277129|SDCCGMLS-0066524.P001|NCGC00095528-01|NCGC00179069-01|AC-34354|AS-58718|SY048641|CS-0016775|M1723|NS00022307|S5163|C09268|EN300-399800|M-3330|7-Methoxycoumarin 100 microg\/mL in Acetonitrile|A824863|A829418|A870805|SR-01000712094|7-METHOXYCOUMARIN (CONSTITUENT OF CHAMOMILE)|Herniarin| primary pharmaceutical reference standard|Q3408685|BRD-K81209159-001-02-9|Z53852417|7-Methoxycoumarin| suitable for fluorescence| >=98.0% (TLC)|herniarin

>  <cas>  (143) 
531-59-9

$$$$

     RDKit          2D

 15 16  0  0  0  0  0  0  0  0999 V2000
   -3.4352    2.7440    0.0000 C   0  0  0  0  0  0  0  0  0  0  0  0
   -3.2727    1.2528    0.0000 O   0  0  0  0  0  0  0  0  0  0  0  0
   -1.9000    0.6480    0.0000 C   0  0  0  0  0  0  0  0  0  0  0  0
   -0.6899    1.5343    0.0000 C   0  0  0  0  0  0  0  0  0  0  0  0
    0.6827    0.9294    0.0000 C   0  0  0  0  0  0  0  0  0  0  0  0
    0.8453   -0.5617    0.0000 C   0  0  0  0  0  0  0  0  0  0  0  0
   -0.3649   -1.4481    0.0000 C   0  0  0  0  0  0  0  0  0  0  0  0
   -1.7375   -0.8432    0.0000 C   0  0  0  0  0  0  0  0  0  0  0  0
   -2.9477   -1.7295    0.0000 O   0  0  0  0  0  0  0  0  0  0  0  0
   -2.7851   -3.2207    0.0000 C   0  0  0  0  0  0  0  0  0  0  0  0
    2.2179   -1.1666    0.0000 O   0  0  0  0  0  0  0  0  0  0  0  0
    3.4280   -0.2802    0.0000 C   0  0  0  0  0  0  0  0  0  0  0  0
    4.8007   -0.8851    0.0000 O   0  0  0  0  0  0  0  0  0  0  0  0
    3.2655    1.2109    0.0000 C   0  0  0  0  0  0  0  0  0  0  0  0
    1.8929    1.8158    0.0000 C   0  0  0  0  0  0  0  0  0  0  0  0
  1  2  1  0
  2  3  1  0
  3  4  2  0
  4  5  1  0
  5  6  2  0
  6  7  1  0
  7  8  2  0
  8  9  1  0
  9 10  1  0
  6 11  1  0
 11 12  1  0
 12 13  2  0
 12 14  1  0
 14 15  2  0
  8  3  1  0
 15  5  1  0
M  END
>  <identifier>  (144) 
CNP0286100.0

>  <canonical_smiles>  (144) 
COC1=CC2=C(C=C1OC)OC(=O)C=C2

>  <standard_inchi>  (144) 
InChI=1S/C11H10O4/c1-13-9-5-7-3-4-11(12)15-8(7)6-10(9)14-2/h3-6H,1-2H3

>  <standard_inchi_key>  (144) 
GUAFOGOEJLSQBT-UHFFFAOYSA-N

>  <name>  (144) 
Scoparone

>  <iupac_name>  (144) 
6,7-dimethoxychromen-2-one

>  <annotation_level>  (144) 
5

>  <total_atom_count>  (144) 
25

>  <heavy_atom_count>  (144) 
15

>  <molecular_weight>  (144) 
206.2

>  <exact_molecular_weight>  (144) 
206.05791

>  <molecular_formula>  (144) 
C11H10O4

>  <alogp>  (144) 
1.81

>  <topological_polar_surface_area>  (144) 
48.67

>  <rotatable_bond_count>  (144) 
2

>  <hydrogen_bond_acceptors>  (144) 
4

>  <hydrogen_bond_donors>  (144) 
0

>  <hydrogen_bond_acceptors_lipinski>  (144) 
4

>  <hydrogen_bond_donors_lipinski>  (144) 
0

>  <lipinski_rule_of_five_violations>  (144) 
0

>  <aromatic_rings_count>  (144) 
2

>  <qed_drug_likeliness>  (144) 
0.70

>  <formal_charge>  (144) 
0

>  <fractioncsp3>  (144) 
0.18

>  <number_of_minimal_rings>  (144) 
2

>  <van_der_walls_volume>  (144) 
178.39

>  <contains_sugar>  (144) 
False

>  <contains_ring_sugars>  (144) 
False

>  <contains_linear_sugars>  (144) 
False

>  <murcko_framework>  (144) 
O1c2ccccc2C=CC1

>  <np_likeness>  (144) 
0.55

>  <chemical_class>  (144) 
Coumarins and derivatives

>  <chemical_sub_class>  (144) 
Coumarins and derivatives

>  <chemical_super_class>  (144) 
Phenylpropanoids and polyketides

>  <direct_parent_classification>  (144) 
Coumarins and derivatives

>  <np_classifier_pathway>  (144) 
Shikimates and Phenylpropanoids

>  <np_classifier_superclass>  (144) 
Coumarins

>  <np_classifier_class>  (144) 
Simple coumarins

>  <np_classifier_is_glycoside>  (144) 
False

>  <organisms>  (144) 
Acanthopanax gracilistylus|Achyranthes aspera|Acronychia laurifolia|Adenia fruticosa|Aegle marmelos|Aeromonas hydrophila|Agathosma cedrimontana|Agave deserti|Aglaia pyramidata|Allamanda schottii|Anagallis arvensis|Angelica dahurica|Aralia chinensis|Aralia dasyphylla|Aralia fargesii|Armillaria tabescens|Artemisia annua|Artemisia annua L.|Artemisia apiacea|Artemisia argyi|Artemisia capillaries|Artemisia capillaris|Artemisia caucasica|Artemisia dracunculus|Artemisia montana|Artemisia princeps|Artemisia reptans|Artemisia scoparia|Asclepias subulata|Aster ptarmicoides|Barnettia kerrii|Betula davurica|Bombina variegata|Boronella koniambiensis|Bothriocline amplifolia|Brassica oleracea var. sabauda|Brickellia baccharidea|Bupleurum fruticescens|Bupleurum salicifolium|Buxus rugulosa|Buxus wallichiana|Calea ternifolia|Canarium album|Casimiroa edulis|Cedrelopsis grevei|Cedrelopsis grevei Baill|Celastrus monospermus|Centrosema haitense|Citrus medica|Citrus medica var. etrog|Citrus medica var. sarcodactylis|Citrus sinensis|Citrus sinensis cv.Valencia|Citrus sulcata|Citrus tamurana|Citrus wilsonii|Clerodendranthus spicatus|Colchicum ritchii|Conium maculatum|Cordia multispicata|Corydalis gigantea|Corydalis suaveolens|Crella incrustans|Cuscuta reflexa|Cyathula officinalis|Cybister lateralimarginalis|Cynanchum viminale|Cystoseira caespitosa|Dendrobium aurantiacum var. denneanum|Dendrobium aurantiacum var.denneanum|Dendrobium candidum|Dendrobium capillipes|Dendrobium chrysanthum|Dendrobium chrysotoxum|Dendrobium densiflorum|Dendrobium fimbriatum|Dendrobium loddigesii|Dendrobium nobile|Dendrobium thyrsiflorum|Dictamnus angustifolius|Dimelaena oreina|Drimia fugax|Duguetia furfuracea|Duranta erecta|Duranta repens|Dysidea villosa|Dysosma delavayi|Echinochloa esculenta|Echinopepon bigelovii|Echinosophora koreensis|Elsholtzia cristata|Enantia chlorantha|Endarachne binghamiae|Epipedobates anthonyi|Eriostemon myoporoides|Eriostemon tomentellus|Erythroxylum passerinum|Esenbeckia flava|Eupatorium lindleyanum|Euphorbia hirta|Eutrochium purpureum|Exobasidium vaccinii|Fagara macrophylla|Ferula oopoda|Forsythia suspensa|Forsythia suspense|Fusarium dimerum|Galium album|Garcinia conrauana|Garcinia multiflora|Gardenia jasminoides|Gentiana kuroo|Gentiana kurroo|Gomphostemma crinitum|Gonospermum fruticosum|Gonospermum gomerae|Herba artemisiae scopariae|Herba dendrobii|Hibiscus taiwanensis|Hopea brevipetiolaris|Hormothamnion enteromorphoides|Hortonia floribunda|Hosta sieboldiana|Hyphear tanakae|Hypholoma capnoides|Inula salsoloides|Jacobaea cannabifolia|Khaya ivorensis|Khaya senegalensis|Khaya senegalensis L.|Kleinia fulgens|Lactarius deliciosus var. deterrimus|Lactarius subpiperatus|Lactarius vellereus|Lanaria lanata|Latrunculia brevis|Laurencia rigida|Lepiniopsis ternatensis|Licaria armeniaca|Liriodendron tulipifera|Lobelia chinensis|Lophozia floerkei|Maharanga bicolor|Microtropis japonica|Millettia rubiginosa|Monascus kaoliang|Monodora brevipes|Morinda coreia|Morus macroura|Mosla japonica|Neopringlea integrifolia|Nocardia pseudobrasiliensis|Nostoc commune var. flagelliforme|Notechis scutatus|Ocypus olens|Ormosia semicastrata|Osteospermum hyoseroides|Palythoa tuberculosa|Parmelia zollingeri|Passiflora morifolia|Phebalium bilobum|Phellodendron amurense|Phellodendron japonicum|Phellodendron japonicum MAXIM|Philotheca pachyphylla|Pinus massoniana|Plagiomnium undulatum|Plakortis simplex|Polypodiodes formosana|Pometia eximia|Prunus serotina|Pseudodistoma novaezelandiae|Pueraria lobata|Pueraria montana var. lobata|Radix moghaniae philippinensis|Ranunculus laetus|Ranunculus sceleratus|Raphanus raphanistrum|Rhizophora mangle|Rosa transmorrisonensis|Rubia wallichiana|Rubia wallichiana DECNE|Rubus phoenicolasius|Salix alba|Sarcandra glabra|Saussurea pulchella|Schisandra sphaerandra|Schrebera swietenoides|Scoparia dulcis|Sedum cepaea|Selaginella labordei|Senecio flammeus|Senecio gilliesi|Serratula wolffii|Sesbania grandiflora|Solanum spirale|Sophora leachiana|Stereocaulon azoreum|Streptomyces olivaceus|Talipariti tiliaceum|Tephrosia bidwilli|Thielavia terricola|Thymus nummularius|Torricellia tiliifolia|Uncaria perrottetii|Urbanodendron verrucosum|Vepris glomerata|Veratrum sabadilla|Vernonia lilacina|Viola mandshurica|Viola philippica|Vismia baccifera|Xanthoria parietina|Zanthoxylum acanthopodium|Zanthoxylum ailanthoides|Zanthoxylum avicennae|Zanthoxylum integrifoliolum|Zanthoxylum leprieurii|Zanthoxylum nitidum|Zanthoxylum schinifolium|Zanthoxylum simulans|garcinina multiflora

>  <collections>  (144) 
ANPDB|AfroMalariaDB|AnalytiCon Discovery NPs|Australian natural products|BIOFACQUIM|CMAUP (cCollective molecular activities of useful plants)|ChEBI NPs|ConMedNP|FooDB|HIM (Herbal Ingredients in-vivo Metabolism database)|HIT (Herbal Ingredients Targets)|KNApSaCK|Latin America dataset|NANPDB (Natural Products from Northern African Sources)|NPACT|NPASS|NPEdia|NuBBEDB|Phyto4Health|SANCDB|Specs Natural Products|Super Natural II|TCMDB-Taiwan (Traditional Chinese Medicine database)|TCMID (Traditional Chinese Medicine Integrated Database)|TIPdb (database of Taiwan indigenous plants)|UNPD (Universal Natural Products Database)|VietHerb

>  <dois>  (144) 
10.1007/s10600-007-0196-9|10.1016/0031-9422(81)84045-9|10.1016/S0031-9422(00)80417-3|10.1016/S0031-9422(00)89536-9|10.1016/j.bse.2006.09.011|10.1016/j.phytol.2012.03.017|10.1016/s0031-9422(00)90400-x|10.1071/ch9640975|10.1071/ch9683079|10.3390/molecules22020289

>  <synonyms>  (144) 
120-08-1|6|7-DIMETHOXYCOUMARIN|6|7-Dimethylesculetin|Escoparone|Scoparon|6|7-Dimethoxy-2H-chromen-2-one|Aesculetin dimethyl ether|6|7-Dimethoxy-2-benzopyrone|6|7-dimethoxychromen-2-one|Scopoletin methyl ether|2H-1-Benzopyran-2-one| 6|7-dimethoxy-|o-Methylscopoletin|6|7-Dimethoxy-2H-1-benzopyran-2-one|Dimethyl esculetin|Coumarin| 6|7-dimethoxy-|Esculetin 6|7-dimethyl ether|CHEBI:9055|H5841PDT4Y|MFCD00006871|6|7-Dimethoxy-Coumarin|EINECS 204-369-0|BRN 0169572|UNII-H5841PDT4Y|Scoparin?|Scoparone|(S)|6|7-Dimethylcoumarine|SCOPARONE MI|SCOPARONE INCI|Maybridge4_003009|5-18-03-00204 (Beilstein Handbook Reference)|SCHEMBL240777|6|7-Dimethoxycoumarin| 98%|CHEMBL325864|MEGxp0_001422|ACon1_002079|6|7-Dimethoxy-Benzopyran-2-one|DTXSID10152640|HMS1529I17|BCP11533|HY-N0228|BDBM50361374|CCG-41207|s3613|STL193280|AKOS000277541|6|7-Dimethoxycoumarin pound>>Escoparone|AC-11197|AC-34006|BS-14810|1ST164127|Benzopyran-2-one| 6|7-dimethoxy- (9CI)|DB-041524|AM20020282|CS-0008271|NS00023901|6|7-Dimethylesculetin| 6|7-Dimethoxycoumarin|C09311|Q-100099|SR-01000631300-1|BRD-K16835051-001-01-2|Q15424761|scoparon|Scoparon| 67-dimethoxycoumarin| aesculetin dimethyl ether|dimethylaesculetin|6|7-dimethoxycoumarin

>  <cas>  (144) 
120-08-1

$$$$

     RDKit          2D

 22 24  0  0  0  0  0  0  0  0999 V2000
   -7.2749    1.8451    0.0000 C   0  0  0  0  0  0  0  0  0  0  0  0
   -6.7218    0.4508    0.0000 O   0  0  0  0  0  0  0  0  0  0  0  0
   -5.2377    0.2327    0.0000 C   0  0  0  0  0  0  0  0  0  0  0  0
   -4.3068    1.4088    0.0000 C   0  0  0  0  0  0  0  0  0  0  0  0
   -2.8228    1.1907    0.0000 C   0  0  0  0  0  0  0  0  0  0  0  0
   -2.2696   -0.2036    0.0000 C   0  0  0  0  0  0  0  0  0  0  0  0
   -0.7856   -0.4217    0.0000 C   0  0  0  0  0  0  0  0  0  0  0  0
   -0.2324   -1.8160    0.0000 C   0  0  0  0  0  0  0  0  0  0  0  0
    1.2516   -2.0341    0.0000 C   0  0  0  0  0  0  0  0  0  0  0  0
    1.8048   -3.4284    0.0000 O   0  0  0  0  0  0  0  0  0  0  0  0
    2.1825   -0.8579    0.0000 C   0  0  0  0  0  0  0  0  0  0  0  0
    3.6666   -1.0760    0.0000 C   0  0  0  0  0  0  0  0  0  0  0  0
    4.2197   -2.4703    0.0000 O   0  0  0  0  0  0  0  0  0  0  0  0
    4.5975    0.1002    0.0000 C   0  0  0  0  0  0  0  0  0  0  0  0
    4.0444    1.4945    0.0000 C   0  0  0  0  0  0  0  0  0  0  0  0
    4.9753    2.6706    0.0000 O   0  0  0  0  0  0  0  0  0  0  0  0
    6.4594    2.4525    0.0000 C   0  0  0  0  0  0  0  0  0  0  0  0
    2.5603    1.7126    0.0000 C   0  0  0  0  0  0  0  0  0  0  0  0
    1.6294    0.5364    0.0000 C   0  0  0  0  0  0  0  0  0  0  0  0
    0.1453    0.7545    0.0000 O   0  0  0  0  0  0  0  0  0  0  0  0
   -3.2005   -1.3797    0.0000 C   0  0  0  0  0  0  0  0  0  0  0  0
   -4.6846   -1.1616    0.0000 C   0  0  0  0  0  0  0  0  0  0  0  0
  1  2  1  0
  2  3  1  0
  3  4  2  0
  4  5  1  0
  5  6  2  0
  6  7  1  0
  7  8  2  0
  8  9  1  0
  9 10  2  0
  9 11  1  0
 11 12  2  0
 12 13  1  0
 12 14  1  0
 14 15  2  0
 15 16  1  0
 16 17  1  0
 15 18  1  0
 18 19  2  0
 19 20  1  0
  6 21  1  0
 21 22  2  0
 22  3  1  0
 20  7  1  0
 19 11  1  0
M  END
>  <identifier>  (145) 
CNP0311798.0

>  <canonical_smiles>  (145) 
COC1=CC=C(C2=CC(=O)C3=C(O)C=C(OC)C=C3O2)C=C1

>  <standard_inchi>  (145) 
InChI=1S/C17H14O5/c1-20-11-5-3-10(4-6-11)15-9-14(19)17-13(18)7-12(21-2)8-16(17)22-15/h3-9,18H,1-2H3

>  <standard_inchi_key>  (145) 
LZERJKGWTQYMBB-UHFFFAOYSA-N

>  <name>  (145) 
5128-44-9

>  <iupac_name>  (145) 
5-hydroxy-7-methoxy-2-(4-methoxyphenyl)chromen-4-one

>  <annotation_level>  (145) 
5

>  <total_atom_count>  (145) 
36

>  <heavy_atom_count>  (145) 
22

>  <molecular_weight>  (145) 
298.29

>  <exact_molecular_weight>  (145) 
298.08412

>  <molecular_formula>  (145) 
C17H14O5

>  <alogp>  (145) 
3.18

>  <topological_polar_surface_area>  (145) 
68.90

>  <rotatable_bond_count>  (145) 
3

>  <hydrogen_bond_acceptors>  (145) 
5

>  <hydrogen_bond_donors>  (145) 
1

>  <hydrogen_bond_acceptors_lipinski>  (145) 
5

>  <hydrogen_bond_donors_lipinski>  (145) 
1

>  <lipinski_rule_of_five_violations>  (145) 
0

>  <aromatic_rings_count>  (145) 
3

>  <qed_drug_likeliness>  (145) 
0.80

>  <formal_charge>  (145) 
0

>  <fractioncsp3>  (145) 
0.12

>  <number_of_minimal_rings>  (145) 
3

>  <van_der_walls_volume>  (145) 
256.67

>  <contains_sugar>  (145) 
False

>  <contains_ring_sugars>  (145) 
False

>  <contains_linear_sugars>  (145) 
False

>  <murcko_framework>  (145) 
O1c2ccccc2CC=C1c3ccccc3

>  <np_likeness>  (145) 
0.89

>  <chemical_class>  (145) 
Flavonoids

>  <chemical_sub_class>  (145) 
O-methylated flavonoids

>  <chemical_super_class>  (145) 
Phenylpropanoids and polyketides

>  <direct_parent_classification>  (145) 
4'-O-methylated flavonoids

>  <np_classifier_pathway>  (145) 
Shikimates and Phenylpropanoids

>  <np_classifier_superclass>  (145) 
Flavonoids

>  <np_classifier_class>  (145) 
Flavones

>  <np_classifier_is_glycoside>  (145) 
False

>  <organisms>  (145) 
Acacia aneura|Acacia ixiophylla|Acamptopappus shockleyi|Aconitum variegatum|Aegialitis annulata|Afrocarpus gracilior|Agave xylonacantha|Alnus japonica|Aloe speciosa|Alpinia oxyphylla|Amaracus pampanini|Amorphophallus konjac|Anarrhinum forskahlii|Andrographis paniculata|Angelica saxatilis|Aniba riparia|Aniba santalodora|Anthemis cretica|Antiphiona pinnatisecta|Antirrhinum spp.|Artabotrys uncinatus|Artemisia afra|Artemisia diffusa|Astragalus circassicus|Baccharis crispa|Baccharis rhomboidalis|Baccharis trinervis|Beilschmiedia madang|Bethencourtia palmensis|Betula nigra|Beyeria|Boesenbergia pandurata|Bonellia macrocarpa|Boswellia ovalifoliolata|Breonia chinensis|Calea ternifolia|Callicarpa americana|Calophyllum inophyllum|Campanula choziatowskyi|Campylotropis hirtella|Centaurea scoparia|Centaurea sonchifolia|Ceropegia dichotoma|Cheilanthes fragrans|Cheilanthes grisea|Chrysanthemum indicum|Cistus clusii|Cistus spp.|Colchicum filifolium|Crinum moorei|Crotalaria candicans|Cunila angustifolia|Currania robertiana|Cynoglossum macrostylum|Daedaleopsis tricolor|Daphne genkwa|Dendrobium loddigesii|Derris indica|Dialium excelsum|Distephanus angulifolius|Dodonaea viscosa|Dorystoechas hastata|Drymaria cordata|Dysidea fragilis|Ekebergia capensis|Enicosanthum cupulare|Eremophila homoplastica|Eria japonica|Erythrina hypaphorus|Escallonia pulverulenta|Esox lucius|Etmopterus spinax|Eucalyptus apodophylla|Eucalyptus globulus subsp. bicostata|Eucalyptus torelliana|Eucryphia|Eucryphia spp.|Eugenia formosa|Euphorbia hylonoma|Euphorbia latazi|Fadogia agrestis|Flavobacterium johnsoniae|Garcinia gaudichaudii|Geigeria filifolia|Gentiana makinoi|Glycosmis macrophylla|Gypsophila perfoliata|Hardenbergia violacea|Helicoverpa armigera|Heliotropium scabrum|Helleborus macranthus|Hieracium amplexicaule|Hypericum elodes|Hypericum polyanthemum|Hyptis albida|Ilex goshiensis|Iris kashmiriana|Isodon flavidus|Juniperus drupacea|Kaempferia parviflora|Lactarius mitissimus|Laurencia decumbens|Lemonia spectabilis|Lepechinia urbanii|Letharia vulpina|Leucas cephalotes SPRENG.|Leuconostoc mesenteroides|Litsea monopetala|Lonchocarpus chiricanus|Lycopodium japonicum|Lycopus virginicus|Maackia tashiroi|Maclura cochinchinensis|Marchesinia brachiata|Martensia denticulata|Matricaria sabulosa|Matsucoccus josephi|Mentha cardiaca|Mentzelia decapetala|Metanarthecium luteoviride|Millettia usaramensis|Mimosa pigra|Mirabilis viscosa|Monoclea gottschei|Mucuna holtonii|Nepytia freemani|Nuxia sphaerocephala|Ocimum americanum L.var.pilosum (Willd.) Paton|Ocimum basilicum L.|Ocimum minimum L.|Ocimum x citriodorum Vis.|Ononis spinosa|Ophyrosporus charrua|Orgyia pseudotsugata|Oroxylum indicum|Ostrya carpinifolia|Pandanus tectorius|Parmotrema nilgherrense|Passiflora foetida|Pentaclethra macrophylla|Peperomia dindygulensis|Peperomia dindygulensis Miq.|Peperomia sui|Periploca sepium|Perovskia spp.|Petunia axillaris subsp. parodii|Piper peepuloides|Plectranthus myrianthus|Podocarpus dacrydioides|Polytrichastrum alpinum|Preussia terricola|Pseudocyclosorus subochthodes|Pterocaulon serrulatum|Pterocaulon virgatum|Pulsatilla chinensis|Quercus marilandica|Rhodiola semenovii|Rhus undulata|Roseivirga echinicomitans|Rosmarinus officinalis|Rubia akane|Salix rosmarinifolia|Salvia dorrii|Salvia hypoleuca|Salvia lavandulifolia|Salvia lavanduloides|Salvia macrosiphon|Salvia moorcroftiana|Salvia nicolsoniana|Salvia officinalis|Salvia palaestina|Salvia patens|Salvia sapinae|Salvia sclarea|Salvia sessei|Salvia spp.|Salvia syriaca|Salvia texana|Salvia verbenaca|Salvia virgata|Salvia yosgadensis|Sarcococca saligna|Schizonella melanogramma|Scutellaria barbata|Senecio platyphylloides|Sideritis spp.|Sonneratia caseolaris|Sphaeria rousseliana|Stephania dielsiana|Stephania zippeliana|Streblognathus aethiopicus|Streptomyces avermitilis (SaOMT2)|Streptomyces bobili|Streptomyces psammoticus SCSIO NS126|Striga asiatica|Talaromyces variabilis|Teucrium marum|Teucrium polium|Teucrium ramosissimum|Thalassiosira weissflogii|Thymus piperella|Tristania conferta|Trocholejeunea scandvicensis|Tubularia larynx|Turnera diffusa|Vernonia cistifolia|Veronica polita

>  <collections>  (145) 
ANPDB|AfroMalariaDB|Australian natural products|BIOFACQUIM|CMAUP (cCollective molecular activities of useful plants)|ChEBI NPs|ConMedNP|FooDB|KNApSaCK|Latin America dataset|Mitishamba database|NANPDB (Natural Products from Northern African Sources)|NPASS|NPEdia|Phyto4Health|StreptomeDB|Super Natural II|TCMDB-Taiwan (Traditional Chinese Medicine database)|TCMID (Traditional Chinese Medicine Integrated Database)|TIPdb (database of Taiwan indigenous plants)|UNPD (Universal Natural Products Database)|VietHerb|ZINC NP

>  <dois>  (145) 
10.1016/s0305-1978(99)00045-9|10.1021/acs.jmedchem.9b00598|10.1021/np50035a027|10.1021/np9605910|10.1071/ch9640692|10.1071/ch9651871|10.1071/ch9680425|10.1071/ch9910123|10.1186/s12934-019-1118-9|10.3390/molecules22020289

>  <synonyms>  (145) 
7|4'-Di-O-methylapigenin|Apigenin 7|4'-dimethyl ether|Apigenin dimethylether|Genkwanin 4'-methyl ether|5-Hydroxy-7-methoxy-2-(4-methoxyphenyl)-4H-chromen-4-one|4'|7-Dimethylapigenin|4'|7-DIMETHOXY-5-HYDROXYFLAVONE|5-Hydroxy-4'|7-dimethoxyflavone|APIGENIN DIMETHYL ETHER|LVC8MF8MWR|C17H14O5|NSC 94547|NSC-94547|Flavone| 5-hydroxy-4'|7-dimethoxy-|4H-1-Benzopyran-4-one| 5-hydroxy-7-methoxy-2-(4-methoxyphenyl)-|CHEBI:2769|5-hydroxy-7-methoxy-2-(4-methoxyphenyl)-4H-1-benzopyran-4-one|Acacetin 7-o-methyl ether|4|7-dimethoxy-5-hydroxyflavone|EINECS 225-867-4|Flavone|7-dimethoxy-|7-METHYLACACETIN|UNII-LVC8MF8MWR|Apigenin| 7|4'-dimethyl|CHEMBL350958|SCHEMBL1176691|BDBM23413|DTXSID50199276|4'|7-DI-O-METHYLAPIGENIN|BCP18481|HY-N2144|LMPK12111029|NSC815096|s3918|ZB1877|AKOS016009507|CCG-214072|CS-5798|AC-34635|BS-17161|DB-118461|NS00032247|F16184|A871320|SR-05000002549|Q23050245|Apigenin 7|4'-dimethyl ether pound>>Apigenin dimethylether|4'-Methylgenkwanin|7-O-methyl-acacetin|4'-O-beta-D-Glucose piericidin A 10-O-alpha-D-glucose (1\u21926)-beta-D-glucoside

>  <cas>  (145) 
nan

$$$$

     RDKit          2D

 20 22  0  0  0  0  0  0  0  0999 V2000
   -6.0840   -2.3531    0.0000 C   0  0  0  0  0  0  0  0  0  0  0  0
   -4.9940   -1.3225    0.0000 C   0  0  0  0  0  0  0  0  0  0  0  0
   -5.3415    0.1367    0.0000 C   0  0  0  0  0  0  0  0  0  0  0  0
   -3.5566   -1.7512    0.0000 C   0  0  0  0  0  0  0  0  0  0  0  0
   -2.4666   -0.7207    0.0000 C   0  0  0  0  0  0  0  0  0  0  0  0
   -1.0292   -1.1494    0.0000 O   0  0  0  0  0  0  0  0  0  0  0  0
    0.0608   -0.1189    0.0000 C   0  0  0  0  0  0  0  0  0  0  0  0
   -0.2867    1.3403    0.0000 C   0  0  0  0  0  0  0  0  0  0  0  0
   -1.6036    2.0585    0.0000 C   0  0  0  0  0  0  0  0  0  0  0  0
   -1.3275    3.5329    0.0000 C   0  0  0  0  0  0  0  0  0  0  0  0
    0.1601    3.7259    0.0000 O   0  0  0  0  0  0  0  0  0  0  0  0
    0.8033    2.3708    0.0000 C   0  0  0  0  0  0  0  0  0  0  0  0
    2.2407    1.9421    0.0000 C   0  0  0  0  0  0  0  0  0  0  0  0
    2.5882    0.4829    0.0000 C   0  0  0  0  0  0  0  0  0  0  0  0
    1.4982   -0.5476    0.0000 C   0  0  0  0  0  0  0  0  0  0  0  0
    1.8457   -2.0068    0.0000 C   0  0  0  0  0  0  0  0  0  0  0  0
    3.2831   -2.4355    0.0000 C   0  0  0  0  0  0  0  0  0  0  0  0
    4.3731   -1.4050    0.0000 C   0  0  0  0  0  0  0  0  0  0  0  0
    5.8106   -1.8336    0.0000 O   0  0  0  0  0  0  0  0  0  0  0  0
    4.0257    0.0542    0.0000 O   0  0  0  0  0  0  0  0  0  0  0  0
  1  2  1  0
  2  3  1  0
  2  4  2  0
  4  5  1  0
  5  6  1  0
  6  7  1  0
  7  8  2  0
  8  9  1  0
  9 10  2  0
 10 11  1  0
 11 12  1  0
 12 13  2  0
 13 14  1  0
 14 15  2  0
 15 16  1  0
 16 17  2  0
 17 18  1  0
 18 19  2  0
 18 20  1  0
 15  7  1  0
 12  8  1  0
 20 14  1  0
M  END
>  <identifier>  (146) 
CNP0187563.0

>  <canonical_smiles>  (146) 
CC(C)=CCOC1=C2C=COC2=CC2=C1C=CC(=O)O2

>  <standard_inchi>  (146) 
InChI=1S/C16H14O4/c1-10(2)5-7-19-16-11-3-4-15(17)20-14(11)9-13-12(16)6-8-18-13/h3-6,8-9H,7H2,1-2H3

>  <standard_inchi_key>  (146) 
IGWDEVSBEKYORK-UHFFFAOYSA-N

>  <name>  (146) 
Isoimperatorin

>  <iupac_name>  (146) 
4-(3-methylbut-2-enoxy)furo[3,2-g]chromen-7-one

>  <annotation_level>  (146) 
5

>  <total_atom_count>  (146) 
34

>  <heavy_atom_count>  (146) 
20

>  <molecular_weight>  (146) 
270.28

>  <exact_molecular_weight>  (146) 
270.08921

>  <molecular_formula>  (146) 
C16H14O4

>  <alogp>  (146) 
3.88

>  <topological_polar_surface_area>  (146) 
52.58

>  <rotatable_bond_count>  (146) 
3

>  <hydrogen_bond_acceptors>  (146) 
4

>  <hydrogen_bond_donors>  (146) 
0

>  <hydrogen_bond_acceptors_lipinski>  (146) 
4

>  <hydrogen_bond_donors_lipinski>  (146) 
0

>  <lipinski_rule_of_five_violations>  (146) 
0

>  <aromatic_rings_count>  (146) 
3

>  <qed_drug_likeliness>  (146) 
0.53

>  <formal_charge>  (146) 
0

>  <fractioncsp3>  (146) 
0.19

>  <number_of_minimal_rings>  (146) 
3

>  <van_der_walls_volume>  (146) 
237.73

>  <contains_sugar>  (146) 
False

>  <contains_ring_sugars>  (146) 
False

>  <contains_linear_sugars>  (146) 
False

>  <murcko_framework>  (146) 
o1ccc2cc3C=CCOc3cc12

>  <np_likeness>  (146) 
1.43

>  <chemical_class>  (146) 
Coumarins and derivatives

>  <chemical_sub_class>  (146) 
Furanocoumarins

>  <chemical_super_class>  (146) 
Phenylpropanoids and polyketides

>  <direct_parent_classification>  (146) 
Psoralens

>  <np_classifier_pathway>  (146) 
Shikimates and Phenylpropanoids

>  <np_classifier_superclass>  (146) 
Coumarins

>  <np_classifier_class>  (146) 
Furocoumarins

>  <np_classifier_is_glycoside>  (146) 
False

>  <organisms>  (146) 
Ammi majus|Ammi majus L.|Angelica acutiloba|Angelica archangelica|Angelica archangelica L.|Angelica dahurica|Angelica furcijuga|Angelica gigas|Angelica japonica|Angelica koreana|Angelica officinalis|Angelica pubescens|Angelica pubescens f.biserrata|Angelica sinensis|Angelica sylvestris L.|Angelica taiwaniana|Angelica talwaniana|Apium graveolens L.|Aralia continentalis|Arracacia tolucensis|Aspergillus albus|Atalantia buxifolia|Atroxima liberica|Bergenia crassifolia|Catharanthus roseus|Changium smyrnioides|Christisonia bicolor|Citrus hystrix|Citrus maxima|Citrus medica|Citrus wilsonii|Clausena lansium|Convallaria majalis|Crotalaria orixensis|Cudrania tricuspidata|Dorstenia gigas|Ferulago capillaris|Ferulago turcomanica|Gardenia jasminoides|Glehnia littoralis|Hansenia forbesii|Hansenia weberbaueriana|Heracleum maximum|Komarovia anisospermum|Lawsonia inermis|Leptothyrsa sprucei|Licaria brasiliensis|Linum crispum|Macrococculus pomiferus|Melicope stipitata|Metrodorea nigra|Niphogeton ternata|Notopterygium forbesii|Notopterygium incisum|Octopus vulgaris|Ostericum grosseserratum|Pachychalina alcaloidifera|Palafoxia texana|Pastinaca sativa L.|Petroselinum crispum|Peucedanum austriacum (Jacq.) W. D. J. Koch s.l.|Peucedanum baicalense|Peucedanum carvifolia Vill.|Peucedanum cervaria (L.) Lapeyr.|Peucedanum dhana|Peucedanum japonicum|Peucedanum oreoselinum (L.) Moench|Peucedanum ostruthium|Peucedanum ostruthium (L.) W. D. J. Koch|Peucedanum palustre (L.) Moench|Peucedanum venetum (Spreng.) W. D. J. Koch|Peucedanum verticillare (L.) Mert. & W. D. J. Koch|Phlojodicarpus sibiricus|Pituranthos triradiatus|Platytaenia lasiocarpa|Pleurospermum angelicoides|Poncirus trifoliata|Prangos bucharica|Prangos haussknechtii|Prangos latiloba|Prangos pabularia|Pseudocinchona pachyceras|Rabdosia angustifolia|Rhododendron dauricum|Ruta graveolens|Ruta graveolens L.|Sanguisorba officinalis|Saposhnikovia divaricata|Saposhnikovia divaricata Schischkin|Scutellaria sieberi|Seseli eriocephalum|Seseli webbii Cosson.|Smilax bracteata|Teclea nobilis|Tenebrio obscurus|Tynanthus panurensis|Veronicastrum japonicum|Xenia blumi|Zanthoxylum spinosum

>  <collections>  (146) 
ANPDB|AnalytiCon Discovery NPs|Australian natural products|BIOFACQUIM|CMAUP (cCollective molecular activities of useful plants)|ChEBI NPs|ETM (Ethiopian Traditional Medicine) DB|FooDB|GNPS (Global Natural Products Social Molecular Networking)|HIT (Herbal Ingredients Targets)|InterBioScreen Ltd|KNApSaCK|Latin America dataset|NANPDB (Natural Products from Northern African Sources)|NPASS|NPEdia|NuBBEDB|Phyto4Health|PubChem NPs|Super Natural II|TCMDB-Taiwan (Traditional Chinese Medicine database)|TCMID (Traditional Chinese Medicine Integrated Database)|TIPdb (database of Taiwan indigenous plants)|TPPT (Toxic Plants–PhytoToxins)|UNPD (Universal Natural Products Database)|VietHerb|ZINC NP

>  <dois>  (146) 
10.1002/biuz.19840140514|10.1002/food.19880321030|10.1016/0031-9422(94)85101-8|10.1016/0031-9422(95)00504-Z|10.1016/j.jep.2007.05.015|10.1016/s0031-9422(00)81503-4|10.1021/acs.jnatprod.6b00204|10.1021/acs.jnatprod.7b00322|10.1021/acs.jnatprod.7b00938|10.1021/acs.jnatprod.9b00547|10.1021/np100531x|10.1021/np200072a|10.1021/np500088u|10.1055/s-2006-962158.pdf|10.1186/2191-2858-2-1

>  <synonyms>  (146) 
482-45-1|Iso-imperatorin|Iso Imperatorin|4-(3-methylbut-2-enoxy)furo3|2-gchromen-7-one|4-PRENYLOXYPSORALEN|UNII-0ZMV066080|CHEBI:66071|4-(3-methylbut-2-en-1-yl)oxy-7h-furo3|2-gchromen-7-one|0ZMV066080|CHEMBL448060|HSDB 8496|DTXSID60197460|7H-Furo(3|2-g)(1)benzopyran-7-one| 4-((3-methyl-2-butenyl)oxy)-|7|4-(3-methyl-2-butenyl)oxy-7H-furo3|2-g-1-benzopyran-7-one|SMR000156243|Auraptin|Cnidin|Oprea1_630212|Oprea1_655950|MLS000574919|MLS001048978|MEGxp0_000090|SCHEMBL15090959|ACon1_000176|DTXCID70119951|HMS2268M21|Isoimperatorin| analytical standard|BCP10721|HY-N0286|BDBM50242377|MFCD00272155|s3904|STL564896|AKOS015895143|AC-8047|CCG-267156|CS-5801|NCGC00180809-01|BS-17328|DB-050314|NS00094752|C16976|A871937|Q-100533|Q1552561|BRD-K40367461-001-01-0|4-(3-Methyl-2-butenyl)oxy-7H-furo3|2-gchromen-7-one #|4-(3-Methyl-2-buten-1-yl)oxy-7H-Furo3|2-g1benzopyran-7-one; 7H-Furo3|2-g1benzopyran-7-one| 4-(3-methyl-2-butenyl)oxy- (8CI|9CI); Isoimperatorin (6CI); 4-(3-Methyl-2-buten-1-yl)oxy-7H-furo3|2-g1benzopyran-7-one|isoimperatorin

>  <cas>  (146) 
482-45-1

$$$$

     RDKit          2D

 18 19  0  0  0  0  0  0  0  0999 V2000
   -2.6908   -3.3936    0.0000 C   0  0  0  0  0  0  0  0  0  0  0  0
   -2.2038   -1.9748    0.0000 O   0  0  0  0  0  0  0  0  0  0  0  0
   -0.7317   -1.6872    0.0000 C   0  0  0  0  0  0  0  0  0  0  0  0
    0.2535   -2.8183    0.0000 C   0  0  0  0  0  0  0  0  0  0  0  0
    1.7257   -2.5306    0.0000 C   0  0  0  0  0  0  0  0  0  0  0  0
    2.2126   -1.1119    0.0000 C   0  0  0  0  0  0  0  0  0  0  0  0
    3.6848   -0.8242    0.0000 C   0  0  0  0  0  0  0  0  0  0  0  0
    4.1717    0.5946    0.0000 C   0  0  0  0  0  0  0  0  0  0  0  0
    3.1865    1.7257    0.0000 C   0  0  0  0  0  0  0  0  0  0  0  0
    3.6735    3.1444    0.0000 O   0  0  0  0  0  0  0  0  0  0  0  0
    1.7144    1.4380    0.0000 O   0  0  0  0  0  0  0  0  0  0  0  0
    1.2274    0.0192    0.0000 C   0  0  0  0  0  0  0  0  0  0  0  0
   -0.2447   -0.2684    0.0000 C   0  0  0  0  0  0  0  0  0  0  0  0
   -1.2299    0.8627    0.0000 C   0  0  0  0  0  0  0  0  0  0  0  0
   -2.7021    0.5750    0.0000 C   0  0  0  0  0  0  0  0  0  0  0  0
   -3.6873    1.7061    0.0000 C   0  0  0  0  0  0  0  0  0  0  0  0
   -5.1595    1.4184    0.0000 C   0  0  0  0  0  0  0  0  0  0  0  0
   -3.2003    3.1249    0.0000 C   0  0  0  0  0  0  0  0  0  0  0  0
  1  2  1  0
  2  3  1  0
  3  4  2  0
  4  5  1  0
  5  6  2  0
  6  7  1  0
  7  8  2  0
  8  9  1  0
  9 10  2  0
  9 11  1  0
 11 12  1  0
 12 13  2  0
 13 14  1  0
 14 15  1  0
 15 16  2  0
 16 17  1  0
 16 18  1  0
 13  3  1  0
 12  6  1  0
M  END
>  <identifier>  (147) 
CNP0281698.0

>  <canonical_smiles>  (147) 
COC1=CC=C2C=CC(=O)OC2=C1CC=C(C)C

>  <standard_inchi>  (147) 
InChI=1S/C15H16O3/c1-10(2)4-7-12-13(17-3)8-5-11-6-9-14(16)18-15(11)12/h4-6,8-9H,7H2,1-3H3

>  <standard_inchi_key>  (147) 
MBRLOUHOWLUMFF-UHFFFAOYSA-N

>  <name>  (147) 
Osthole

>  <iupac_name>  (147) 
7-methoxy-8-(3-methylbut-2-enyl)chromen-2-one

>  <annotation_level>  (147) 
5

>  <total_atom_count>  (147) 
34

>  <heavy_atom_count>  (147) 
18

>  <molecular_weight>  (147) 
244.29

>  <exact_molecular_weight>  (147) 
244.10994

>  <molecular_formula>  (147) 
C15H16O3

>  <alogp>  (147) 
3.31

>  <topological_polar_surface_area>  (147) 
39.44

>  <rotatable_bond_count>  (147) 
3

>  <hydrogen_bond_acceptors>  (147) 
3

>  <hydrogen_bond_donors>  (147) 
0

>  <hydrogen_bond_acceptors_lipinski>  (147) 
3

>  <hydrogen_bond_donors_lipinski>  (147) 
0

>  <lipinski_rule_of_five_violations>  (147) 
0

>  <aromatic_rings_count>  (147) 
2

>  <qed_drug_likeliness>  (147) 
0.61

>  <formal_charge>  (147) 
0

>  <fractioncsp3>  (147) 
0.27

>  <number_of_minimal_rings>  (147) 
2

>  <van_der_walls_volume>  (147) 
229.19

>  <contains_sugar>  (147) 
False

>  <contains_ring_sugars>  (147) 
False

>  <contains_linear_sugars>  (147) 
False

>  <murcko_framework>  (147) 
O1c2ccccc2C=CC1

>  <np_likeness>  (147) 
1.62

>  <chemical_class>  (147) 
Coumarins and derivatives

>  <chemical_sub_class>  (147) 
Coumarins and derivatives

>  <chemical_super_class>  (147) 
Phenylpropanoids and polyketides

>  <direct_parent_classification>  (147) 
Coumarins and derivatives

>  <np_classifier_pathway>  (147) 
Shikimates and Phenylpropanoids

>  <np_classifier_superclass>  (147) 
Coumarins

>  <np_classifier_class>  (147) 
Simple coumarins

>  <np_classifier_is_glycoside>  (147) 
False

>  <organisms>  (147) 
Adlumia fungosa|Agrimonia pilosa|Agrimonia pilosa var. japonica|Agrimonia pilosa var.japonica|Ambrosia polystachya|Angelica archangelica|Angelica archangelica L.|Angelica dahurica|Angelica officinalis|Angelica pubescens|Angelica pubescens f.biserrata|Angelica sylvestris L.|Angelica ursina Maxim|Aralia continentalis|Archangelicia tschimganica|Arnica foliosa|Arracacia tolucensis|Atractylodes lancea|Baccharis flabellata|Callitropsis nootkatensis|Citrus aurantium|Citrus maxima|Citrus medica|Citrus sp.|Citrus spp.|Citrus wilsonii|Clausena anisata|Clausena excavata|Clausena sp.|Clausenia spp.|Cneoridium spp.|Cnidium monieri|Cnidium monnieri|Cyathus helenae|Cystoseira caespitosa|Daphne cannabina|Daucus carota|Eucalyptus exserta|Ferula sumbul|Ferulago capillaris|Ferulago turcomanica|Flindersia bennettiana|Gasteria bicolor|Gynostemma pentaphyllum|Hansenia weberbaueriana|Haplophyllum spp.|Heracleum candicans WALL.|Heracleum canescens|Heracleum pinnatum|Hypholoma capnoides|Indian beech tree|Inga paterno|Juglans regia|Lactarius deliciosus var. deterrimus|Leiothrix flavescens|Leonurus heterophyllus|Leptospermum liversidgei|Melicope semecarpifolia|Murraya paniculata|Notopterygium incisum|Petroselinum crispum|Peucedanum ostruthium|Peucedanum rubricaule|Phegopteris subaurita|Pilocarpus riedelianus|Prangos bucharica|Prangos haussknechtii|Prangos pabularia|Radix heraclei maximi|Rosa transmorrisonensis|Sauropus quadrangularis|Selinum monniere|Senecio barba-johannis|Seseli gummiferum subsp.corymbosum|Seseli sibiricum|Siphula applanata|Smilax macrophylla|Solanum lycocarpum|Spilanthes ocymifolia|Spongia hispida|Tephrosia lupinifolia|Torilis japonica|Umbelliferae|Vernonia echitifolia|Wedelia forsteriana|murraya alata

>  <collections>  (147) 
AnalytiCon Discovery NPs|Australian natural products|BIOFACQUIM|CMAUP (cCollective molecular activities of useful plants)|ChEBI NPs|ETM (Ethiopian Traditional Medicine) DB|FooDB|GNPS (Global Natural Products Social Molecular Networking)|HIT (Herbal Ingredients Targets)|InPACdb|InflamNat|KNApSaCK|Latin America dataset|NPACT|NPASS|NPEdia|NuBBEDB|Phyto4Health|PubChem NPs|Super Natural II|TCMDB-Taiwan (Traditional Chinese Medicine database)|TCMID (Traditional Chinese Medicine Integrated Database)|TIPdb (database of Taiwan indigenous plants)|TPPT (Toxic Plants–PhytoToxins)|UEFS (Natural Products Databse of the UEFS)|UNPD (Universal Natural Products Database)|VietHerb|ZINC NP

>  <dois>  (147) 
10.1016/0031-9422(93)80055-W|10.1016/j.jep.2007.05.015|10.1016/s0006-2952(02)01606-4|10.1021/acs.jnatprod.7b00322|10.1021/jf102812t|10.1021/np010122k|10.1021/np200072a|10.1021/np50060a016|10.1021/np500861u|10.1021/np9006712|10.1021/np970430b|10.1039/c7md00388a|10.1071/ch9640975|10.1371/journal.pone.0019825|10.2174/1568011053352622|10.2903/j.efsa.2012.2663

>  <synonyms>  (147) 
Osthol|484-12-8|Ostole|7-methoxy-8-(3-methylbut-2-en-1-yl)-2H-chromen-2-one|7-Methoxy-8-isopentenylcoumarin|2H-1-Benzopyran-2-one| 7-methoxy-8-(3-methyl-2-butenyl)-|8-(3-Methyl-2-butenyl)herniarin|7-methoxy-8-(3-methyl-2-butenyl)coumarin|NSC 31868|UNII-XH1TI1759C|Coumarin| 7-methoxy-8-(3-methyl-2-butenyl)-|XH1TI1759C|7-METHOXY-8-(3-METHYL-2-BUTENYL)-COUMARIN|NSC-31868|CHEMBL52229|CHEBI:69832|HSDB 8479|MFCD00076049|7-methoxy-8-(3-methyl-2-butenyl)-2h-1-benzopyran-2-one|7-METHOXY-8-(3-METHYLBUT-2-ENYL)-2-CHROMENONE|SMR000156202|Osthole (Osthol)|A0O|Osthole|(S)|Spectrum_001542|SpecPlus_000946|OSTHOLE INCI|OSTHOLE MI|Spectrum2_000723|Spectrum3_001645|Spectrum4_001687|Spectrum5_000334|Osthole| analytical standard|Oprea1_642606|Oprea1_873803|SCHEMBL50436|BSPBio_003369|KBioGR_001954|KBioSS_002022|MLS000574904|MLS001048988|MLS006011425|DivK1c_007042|SPECTRUM1504165|SPBio_000646|MEGxp0_000155|ACon1_002155|GTPL10302|KBio1_001986|KBio2_002022|KBio2_004590|KBio2_007158|KBio3_002589|DTXSID20197507|HMS2267O21|HMS3656A07|AMY40671|BCP10832|HY-N0054|BBL013019|BDBM50240512|CCG-40172|s2337|STK396321|AKOS000277663|AC-8041|DS-0881|SDCCGMLS-0066780.P001|NCGC00095694-01|WLN: T66 BOVJ IO1 J2UY1&1|NS00031794|O0426|SW219438-1|C09280|A827530|Osthole| primary pharmaceutical reference standard|SR-01000721624|Q-100535|Q4338679|BRD-K78294846-001-03-3|7-Methoxy-8-(3-methyl-2-butenyl)-2H-chromen-2-one #|Osthole| European Pharmacopoeia (EP) Reference Standard|1440642-68-1|InChI=1\/C15H16O3\/c1-10(2)4-7-12-13(17-3)8-5-11-6-9-14(16)18-15(11)12\/h4-6|8-9H|7H2|1-3H|Umbelliferae|osthol|NP699

>  <cas>  (147) 
484-12-8

$$$$

     RDKit          2D

 16 18  0  0  0  0  0  0  0  0999 V2000
   -1.8419   -3.2042    0.0000 C   0  0  0  0  0  0  0  0  0  0  0  0
   -0.5305   -2.4759    0.0000 O   0  0  0  0  0  0  0  0  0  0  0  0
   -0.5056   -0.9761    0.0000 C   0  0  0  0  0  0  0  0  0  0  0  0
   -1.7920   -0.2046    0.0000 C   0  0  0  0  0  0  0  0  0  0  0  0
   -3.2261   -0.6444    0.0000 O   0  0  0  0  0  0  0  0  0  0  0  0
   -4.0875    0.5837    0.0000 C   0  0  0  0  0  0  0  0  0  0  0  0
   -3.1857    1.7824    0.0000 C   0  0  0  0  0  0  0  0  0  0  0  0
   -1.7671    1.2952    0.0000 C   0  0  0  0  0  0  0  0  0  0  0  0
   -0.4557    2.0235    0.0000 C   0  0  0  0  0  0  0  0  0  0  0  0
    0.8307    1.2520    0.0000 C   0  0  0  0  0  0  0  0  0  0  0  0
    0.8057   -0.2478    0.0000 C   0  0  0  0  0  0  0  0  0  0  0  0
    2.0921   -1.0193    0.0000 O   0  0  0  0  0  0  0  0  0  0  0  0
    3.4034   -0.2910    0.0000 C   0  0  0  0  0  0  0  0  0  0  0  0
    4.6898   -1.0625    0.0000 O   0  0  0  0  0  0  0  0  0  0  0  0
    3.4284    1.2088    0.0000 C   0  0  0  0  0  0  0  0  0  0  0  0
    2.1420    1.9803    0.0000 C   0  0  0  0  0  0  0  0  0  0  0  0
  1  2  1  0
  2  3  1  0
  3  4  2  0
  4  5  1  0
  5  6  1  0
  6  7  2  0
  7  8  1  0
  8  9  2  0
  9 10  1  0
 10 11  2  0
 11 12  1  0
 12 13  1  0
 13 14  2  0
 13 15  1  0
 15 16  2  0
 11  3  1  0
  8  4  1  0
 16 10  1  0
M  END
>  <identifier>  (148) 
CNP0214931.0

>  <canonical_smiles>  (148) 
COC1=C2OC=CC2=CC2=C1OC(=O)C=C2

>  <standard_inchi>  (148) 
InChI=1S/C12H8O4/c1-14-12-10-8(4-5-15-10)6-7-2-3-9(13)16-11(7)12/h2-6H,1H3

>  <standard_inchi_key>  (148) 
QXKHYNVANLEOEG-UHFFFAOYSA-N

>  <name>  (148) 
methoxsalen

>  <iupac_name>  (148) 
9-methoxyfuro[3,2-g]chromen-7-one

>  <annotation_level>  (148) 
5

>  <total_atom_count>  (148) 
24

>  <heavy_atom_count>  (148) 
16

>  <molecular_weight>  (148) 
216.19

>  <exact_molecular_weight>  (148) 
216.04226

>  <molecular_formula>  (148) 
C12H8O4

>  <alogp>  (148) 
2.55

>  <topological_polar_surface_area>  (148) 
52.58

>  <rotatable_bond_count>  (148) 
1

>  <hydrogen_bond_acceptors>  (148) 
4

>  <hydrogen_bond_donors>  (148) 
0

>  <hydrogen_bond_acceptors_lipinski>  (148) 
4

>  <hydrogen_bond_donors_lipinski>  (148) 
0

>  <lipinski_rule_of_five_violations>  (148) 
0

>  <aromatic_rings_count>  (148) 
3

>  <qed_drug_likeliness>  (148) 
0.59

>  <formal_charge>  (148) 
0

>  <fractioncsp3>  (148) 
0.08

>  <number_of_minimal_rings>  (148) 
3

>  <van_der_walls_volume>  (148) 
177.65

>  <contains_sugar>  (148) 
False

>  <contains_ring_sugars>  (148) 
False

>  <contains_linear_sugars>  (148) 
False

>  <murcko_framework>  (148) 
o1ccc2cc3C=CCOc3cc12

>  <np_likeness>  (148) 
1.26

>  <chemical_class>  (148) 
Coumarins and derivatives

>  <chemical_sub_class>  (148) 
Furanocoumarins

>  <chemical_super_class>  (148) 
Phenylpropanoids and polyketides

>  <direct_parent_classification>  (148) 
8-methoxypsoralens

>  <np_classifier_pathway>  (148) 
Shikimates and Phenylpropanoids

>  <np_classifier_superclass>  (148) 
Coumarins

>  <np_classifier_class>  (148) 
Furocoumarins

>  <np_classifier_is_glycoside>  (148) 
False

>  <organisms>  (148) 
Acanthus montanus|Aegle marmelos|Ageratina saltillensis|Ajania fastigiata|Ambrosia arborescens|Ammi majus|Ammi majus L.|Ammi visnaga|Angelica acutiloba|Angelica archangelica|Angelica dahurica|Angelica decursiva|Angelica gigas|Angelica keiskei|Angelica officinalis|Angelica pubescens|Angelica pubescens f.biserrata|Angelica sinensis|Angelica sylvestris L.|Angelica taiwaniana|Angelica talwaniana|Angelica ursina Maxim|Annona haematantha|Anthriscus sylvestris (L.) Hoffm.|Antidesma membranaceum|Apium graveolens|Apium graveolens L.|Aralia continentalis|Arracacia tolucensis|Astragalus zahlbruckneri|Atalantia ceylanica|Axinella cannabina|Axinella polycapella|Azotobacter chroococcum|Bidens pilosa|Bituminaria bituminosa|Caragana frutex|Carassius auratus|Cirsium canum|Clausena anisata|Cnidium monieri|Cnidium monnieri|Cornicularia normoerica|Coussarea paniculata|Crocodylus niloticus|Cryptodiscus didymus|Cullen corylifolium|Cystoseira caespitosa|Daucus carota|Dictamnus albus L.|Dictamnus dasycarpus|Dictamnus hispanicus|Earias insulana|Eleutherococcus senticosus|Eriosema kraussianum|Esenbeckia hartmanii|Esperiopsis edwardii|Eunicea pinta|Fagara mayu|Fagara sp.|Fagara spp.|Feronia limonia|Ferula lutea|Ferula sumbul|Ficus carica L.|Ficus elastica Roxb.|Foeniculum vulgare|Fructus psoraleae corylifoliae|Garcinia parvifolia|Glehnia littoralis|Gloeophyllum sepiarium|Grewia villosa|Heracleum asperum|Heracleum canescens|Heracleum granatense|Heracleum grandiflorum|Heracleum lanatum|Heracleum mantegazzianum|Heracleum mantegazzianum Sommier & Levier|Heracleum moellendorffii Hance|Heracleum moellendorffii Hance var.paucivitatum|Heracleum persicum (Fisch.) Desf.|Heracleum pinnatum|Heracleum ponticum|Heracleum sosnowskyi Manden.|Heracleum sphondylium|Heracleum sphondylium L. s.l. (H. sphondylium L. s.str., H. sphondylium subsp. alpinum (L.) Bonnier & Layens, H. sphondylium subsp. elegans (Crantz) Schuebl. & G. Martens and H. sphondylium  subsp. pyrenaicum (Lam.) Bonnier & Layens)|Heracleum woroschiklowii|Hydrocotyle leucocephala|Hygrophila spinosa|Hymenocallis speciosa|Hypholoma capnoides|Hypoxylon carneum|Hypoxylon sclerophaeum|Indian beech tree|Kniphofia tuckii|Lactarius deliciosus var. deterrimus|Leonurus heterophyllus|Leptothyrsa sprucei|Levisticum officinale|Ligularia pleurocaulis|Ligusticum multivittatum|Lonchocarpus salvadorensis|Macaranga denticulata|Macrococculus pomiferus|Metrodorea nigra|Myelois cribrella|Nierembergia hippomanica|Nigritella suaveolens|Niphogeton ternata|Nocardia brasiliensis|Odontosyllis undecimdonta|Ophioglossum petiolatum|Oppopanax chironium|Opuntia vulgaris|Oyedaea verbesinoides|Pasinaca sativa|Pastinaca sativa|Pastinaca sativa L.|Patrinia villosa|Petroselinum crispum|Petroselinum crispum (Mill.) Fuss|Peucedanum austriacum (Jacq.) W. D. J. Koch s.l.|Peucedanum carvifolia Vill.|Peucedanum cervaria (L.) Lapeyr.|Peucedanum japonicum|Peucedanum oreoselinum (L.) Moench|Peucedanum palustre (L.) Moench|Peucedanum praeruptorum|Peucedanum venetum (Spreng.) W. D. J. Koch|Peucedanum verticillare (L.) Mert. & W. D. J. Koch|Phebalium anceps|Pimpinella nigra Mill.|Pimpinella peregrina L.|Pimpinella saxifraga L.|Pinus krempfii|Pinus peuce|Piper hancei|Pleurospermum rivulorum|Podocarpus henckelii|Prangos tschimganica|Psoralea corylifolia|Pyrola calliantha|Quercus sessilis|Radix adenophorae|Rapanea umbellata|Rosa transmorrisonensis|Ruta graveolens|Ruta graveolens L.|Ruta sp.|Ruta spp.|Salta triflora|Salvia lasiantha|Salvia polystachya|Saposhnikovia divaricata|Saposhnikovia divaricata Schischkin|Schenkia spicata|Seseli tortuosum LBS.Eur.|Seseli webbii Cosson.|Solanum berthaultii|Sphoeroides vermicularis|Streptomyces chryseus|Thermus thermophilus|Tordylium apulum|Torilis japonica|Trachyopsis halichondrioides|Trifolium montanum|Trixis inula|Ulosa spongia|Vicia sativa|Zanthoxylum echinocarpum|Zanthoxylum spinosum

>  <collections>  (148) 
ANPDB|AnalytiCon Discovery NPs|Australian natural products|BIOFACQUIM|BitterDB|CMAUP (cCollective molecular activities of useful plants)|ChEBI NPs|DrugBankNP|ETM (Ethiopian Traditional Medicine) DB|FooDB|GNPS (Global Natural Products Social Molecular Networking)|HIM (Herbal Ingredients in-vivo Metabolism database)|InterBioScreen Ltd|KNApSaCK|Latin America dataset|NANPDB (Natural Products from Northern African Sources)|NCI DTP data|NPASS|NPCARE|NPEdia|NuBBEDB|Phenol-explorer|Phyto4Health|PubChem NPs|Specs Natural Products|Super Natural II|TCMDB-Taiwan (Traditional Chinese Medicine database)|TCMID (Traditional Chinese Medicine Integrated Database)|TIPdb (database of Taiwan indigenous plants)|TPPT (Toxic Plants–PhytoToxins)|UNPD (Universal Natural Products Database)|VietHerb|ZINC NP

>  <dois>  (148) 
10.1002/9780470744307.gat218|10.1002/biuz.19840140514|10.1002/food.19880321030|10.1016/0031-9422(95)00504-Z|10.1016/0305-1978(88)90076-2|10.1016/j.bmcl.2013.04.081|10.1016/j.bmcl.2015.04.003|10.1016/j.jep.2007.05.015|10.1021/acs.jnatprod.9b00547|10.1021/jf0259361|10.1021/np058080d|10.1021/np50001a005|10.1039/c7md00388a|10.1111/j.1432-1033.2004.03995.x|10.1186/2191-2858-2-1|10.1371/journal.pone.0019825

>  <synonyms>  (148) 
8-Methoxypsoralen|298-81-7|XANTHOTOXIN|Meladinine|Oxypsoralen|9-Methoxy-7H-furo3|2-gchromen-7-one|8-MOP|Xanthotoxine|Ammoidin|Puvalen|Meloxine|Uvadex|Meladoxen|Methoxa-Dome|New-Meladinin|Zanthotoxin|Puvamet|Oxsoralen-ultra|Geroxalen|Methoxalen|Oxsoralen lotion|Psoralon-MOP|8-Methoxyfuranocoumarin|Proralone-mop|8-MP|O-methylxanthotoxol|Vitpso|Ultra Mop|8-Methoxy-2'|3'|6|7-furocoumarin|9-Methoxy-7H-furo3|2-g1benzopyran-7-one|NCI-C55903|8-methoxsalen|7H-Furo3|2-g1benzopyran-7-one| 9-methoxy-|7-Furocoumarin|Methoxy-8-psoralen|NSC45923|6-Hydroxy-7-methoxy-5-benzofuranacrylic acid delta-lactone|CCRIS 2083|HSDB 2505|UNII-U4VJ29L7BQ|8-Methoxy-(furano-3'.2':6.7-coumarin)|EINECS 206-066-9|U4VJ29L7BQ|BRN 0196453|Methoxsalen-13CD3|DTXSID8020830|7H-Furo(3|2-G)(1)benzopyran-7-one| 9-methoxy-|CHEBI:18358|Methoxsalen (Oxsoralen)|SM-88 COMPONENT METHOXSALEN|MFCD00005009|9-Methoxyfuro(3|2-g)chromen-7-one|5-Benzofuranacrylic acid| 6-hydroxy-7-methoxy-| delta-lactone|CHEMBL416|Oxsoralen Ultra|DTXCID40830|Methoxsalen USP:BAN:JAN|Psoralen-mop|5-19-06-00015 (Beilstein Handbook Reference)|9-METHOXY-2H-FURO3|2-GCHROMEN-2-ONE|Meladinin (VAN)|NCGC00016418-07|CAS-298-81-7|Oxoralen|METHOXSALEN (IARC)|METHOXSALEN IARC|METHOXSALEN (MART.)|METHOXSALEN MART.|METHOXSALEN (USP-RS)|1246819-63-5|Deltapsoralen|METHOXSALEN (USP MONOGRAPH)|Methoxsalen| 8-|SMR000071170|8-Methoxypsoralen with ultraviolet A therapy|OXSORALEN (TN)|SR-01000629727|Methoxsalen plus ultraviolet radiation|methoxypsoralen|Mopsoralen|Puvasoralen|Oxoralen-Ultra|Prestwick_661|9-methoxyfurano3|2-gchromen-2-one|Spectrum_001023|ST041029|METHOXSALEN MI|Prestwick0_000479|Spectrum3_000499|Spectrum4_000052|Spectrum5_001891|METHOXSALEN JAN|UVADEX (TN)|Xanthotoxin (Methoxsalen)|X0009|METHOXSALEN HSDB|Methoxsalen (JP17\/USP)|METHOXSALEN VANDF|8-MOP;Xanthotoxin;Ammoidin|7H-Furo3| 9-methoxy-|Oprea1_166319|SCHEMBL19168|BSPBio_000618|BSPBio_001997|KBioGR_000543|KBioSS_001503|METHOXSALEN WHO-DD|8MO|MLS000062633|MLS002303011|DivK1c_000763|SPECTRUM1500400|SPBio_001004|SPBio_002557|BPBio1_000680|MEGxp0_000095|Xanthotoxin| analytical standard|Methoxsalen (8-Methoxypsoralen)|ACon1_000174|GTPL12457|HMS502G05|KBio1_000763|KBio2_001503|KBio2_004071|KBio2_006639|KBio3_001497|METHOXSALEN ORANGE BOOK|NINDS_000763|HMS1569O20|HMS1920N05|HMS2091D20|HMS2096O20|HMS2269P03|HMS3259L13|HMS3655B05|HMS3884K16|Pharmakon1600-01500400|BCP28212|Tox21_110432|Tox21_201767|Tox21_302816|8-Methoxypsoralen;Xanthotoxin;8-MOP|BDBM50041234|CCG-36366|NSC757114|s1952|STK735539|WLN: T C566 DO LVOJ BO1|8-Methoxypsoralen| analytical standard|AKOS000277012|AC-4259|AM84906|CS-1983|DB00553|DS-5159|NC00652|SDCCGMLS-0042377.P002|IDI1_000763|8-methoxy-4''|5'':6|7-furocoumarin|NCGC00016418-11|NCGC00060938-02|NCGC00178871-01|NCGC00256435-01|NCGC00259316-01|HY-30151|NCI60_004085|SBI-0051443.P003|NS00004875|SW167762-4|8-methoxy-furano-3''.2'':6.7-coumarin|EN300-52504|C01864|D00139|AB00052042-14|AB00052042_16|A820092|Q408570|Q-100381|BRD-K63430059-001-03-2|Z754918916|Methoxsalen| United States Pharmacopeia (USP) Reference Standard|5-BENZOFURANACRYLIC ACIDE| 6-HYDROXY-7-METHOXY-| DELTA-LACTONE|12692-94-3|ammoidin|FSL0953

>  <cas>  (148) 
298-81-7|12692-94-3

$$$$

     RDKit          2D

 15 16  0  0  0  0  0  0  0  0999 V2000
    1.1159   -3.2673    0.0000 C   0  0  0  0  0  0  0  0  0  0  0  0
    0.2686   -2.0295    0.0000 C   0  0  0  0  0  0  0  0  0  0  0  0
   -1.1843   -2.4023    0.0000 C   0  0  0  0  0  0  0  0  0  0  0  0
   -2.5370   -1.7540    0.0000 C   0  0  0  0  0  0  0  0  0  0  0  0
   -3.1564   -0.3879    0.0000 C   0  0  0  0  0  0  0  0  0  0  0  0
   -2.7528    1.0568    0.0000 C   0  0  0  0  0  0  0  0  0  0  0  0
   -3.9724    1.9301    0.0000 C   0  0  0  0  0  0  0  0  0  0  0  0
   -1.5150    1.9041    0.0000 C   0  0  0  0  0  0  0  0  0  0  0  0
   -0.0222    1.7575    0.0000 C   0  0  0  0  0  0  0  0  0  0  0  0
    1.0271    0.6856    0.0000 C   0  0  0  0  0  0  0  0  0  0  0  0
    1.1420   -0.8100    0.0000 C   0  0  0  0  0  0  0  0  0  0  0  0
    2.6376   -0.6951    0.0000 C   0  0  0  0  0  0  0  0  0  0  0  0
    2.5227    0.8005    0.0000 C   0  0  0  0  0  0  0  0  0  0  0  0
    2.4078    2.2961    0.0000 C   0  0  0  0  0  0  0  0  0  0  0  0
    4.0183    0.9154    0.0000 C   0  0  0  0  0  0  0  0  0  0  0  0
  1  2  2  0
  2  3  1  0
  3  4  1  0
  4  5  1  0
  5  6  2  3
  6  7  1  0
  6  8  1  0
  8  9  1  0
 10  9  1  1
 10 11  1  0
 11 12  1  6
 12 13  1  0
 13 14  1  0
 13 15  1  0
 11  2  1  0
 13 10  1  0
M  END
>  <identifier>  (149) 
CNP0212910.1

>  <canonical_smiles>  (149) 
C=C1CCC=C(C)CC[C@@H]2[C@@H]1CC2(C)C

>  <standard_inchi>  (149) 
InChI=1S/C15H24/c1-11-6-5-7-12(2)13-10-15(3,4)14(13)9-8-11/h6,13-14H,2,5,7-10H2,1,3-4H3/t13-,14-/m1/s1

>  <standard_inchi_key>  (149) 
NPNUFJAVOOONJE-ZIAGYGMSSA-N

>  <name>  (149) 
Caryophyllene

>  <iupac_name>  (149) 
(1~{R},9~{S})-4,11,11-trimethyl-8-methylene-bicyclo[7.2.0]undec-4-ene

>  <annotation_level>  (149) 
5

>  <total_atom_count>  (149) 
39

>  <heavy_atom_count>  (149) 
15

>  <molecular_weight>  (149) 
204.36

>  <exact_molecular_weight>  (149) 
204.1878

>  <molecular_formula>  (149) 
C15H24

>  <alogp>  (149) 
4.73

>  <topological_polar_surface_area>  (149) 
0.00

>  <rotatable_bond_count>  (149) 
0

>  <hydrogen_bond_acceptors>  (149) 
0

>  <hydrogen_bond_donors>  (149) 
0

>  <hydrogen_bond_acceptors_lipinski>  (149) 
0

>  <hydrogen_bond_donors_lipinski>  (149) 
0

>  <lipinski_rule_of_five_violations>  (149) 
0

>  <aromatic_rings_count>  (149) 
0

>  <qed_drug_likeliness>  (149) 
0.50

>  <formal_charge>  (149) 
0

>  <fractioncsp3>  (149) 
0.73

>  <number_of_minimal_rings>  (149) 
2

>  <van_der_walls_volume>  (149) 
227.06

>  <contains_sugar>  (149) 
False

>  <contains_ring_sugars>  (149) 
False

>  <contains_linear_sugars>  (149) 
False

>  <murcko_framework>  (149) 
C1=CCCC2CCC2CCC1

>  <np_likeness>  (149) 
3.43

>  <chemical_class>  (149) 
Prenol lipids

>  <chemical_sub_class>  (149) 
Sesquiterpenoids

>  <chemical_super_class>  (149) 
Lipids and lipid-like molecules

>  <direct_parent_classification>  (149) 
Sesquiterpenoids

>  <np_classifier_pathway>  (149) 
Terpenoids

>  <np_classifier_superclass>  (149) 
Sesquiterpenoids

>  <np_classifier_class>  (149) 
Caryophyllane sesquiterpenoids

>  <np_classifier_is_glycoside>  (149) 
False

>  <organisms>  (149) 
Acacia armata|Acacia oswaldii|Acacia saligna|Acanthopanax hypoleucus|Acer pictum subsp. okamotoanum|Achillea clypeolata|Achyrocline bogotensis|Acmella ciliata|Aconitum leucostomum|Aconitum sajanense|Aconitum subcuneatum|Aconitum violaceum|Acorus calamus|Acorus gramineus|Acorus tatarinowii|Acremonium furcatum|Actinodaphne longifolia|Actinomadura pelletieri|Adonis sutchuenensis|Aframomum melegueta|Agaricus hortensis|Agastache rugosa|Agathosma betulina|Agelas linnaei|Aglaia lawii|Agrimonia pilosa|Akebia quinata|Akebia trifoliata|Albizia mollis|Albizia zygia|Alicyclobacillus acidocaldarius|Alkanna cappadocica|Alnus alnobetula subsp. fruticosa|Aloe vera|Alphinia galanga|Alpinia flabellata|Alseodaphne andersonii|Alstonia muelleriana|Alstonia undulifolia|Alstonia yunnanensis|Alternaria bataticola|Alternaria japonica|Amaioua guianensis|Amanita porphyria|Amomum longiligulare|Amomum villosum|Amomum xanthioides|Amphimedon terpenensis|Anarsia lineatella|Anastrepha ludens|Anchusa strigosa|Andinobates bombetes|Andropogon laniger|Angelica acutiloba|Angelica gigas|Angelica japonica|Angelica sinensis|Annona reticulata|Annona squamosa|Anthotroche blackii|Anthyllis hermanniae|Apollonias barbujana|Apostichopus japonicus|Aquilegia ecalcarata|Arabidopsis thaliana|Arnebia euchroma|Arnebia guttata|Arnica sachalinensis|Artemisia annua|Artemisia annua L.|Artemisia annua L.cultivar Jwarharti|Artemisia apiacea|Artemisia argyi|Artemisia capillaris|Artemisia cina|Artemisia dentata|Artemisia hanseniana|Artemisia iwayomogi|Artemisia jacutica|Artemisia montana|Artemisia princeps|Artemisia spp.|Arthropsis truncata|Ascidia ahodori|Ascocoryne sarcoides|Aspergillus duricaulis|Aspergillus falconensis|Aspilia hispida|Asteriscus aquaticus|Astilbe odontophylla|Astragalus ernestii|Astragalus membranaceus|Astragalus mongholicus|Atalantia racemosa|Athanasia crithmifolia|Atractylodes chinensis|Atractylodes lancea|Atractylodes macrocephala|Atropa belladonna|Avrainvillea rawsonii|Baccharis alaternoides|Baccharis eggersii|Baccharis santelicis|Baccharis sarothroides|Baccharis truncata|Bactris plumeriana|Bactrocera kraussi|Baeckea frutescens L.|Barbarea vulgaris subsp. arcuata|Benincasa hispida|Benzoin praecox|Berberis julianae|Berchemia floribunda|Berneuxia thibetica|Bersama abyssinica|Betula maximowicziana|Betula platyphylla|Bipolaris sacchari|Bistorta manshuriensis|Bistorta officinalis|Bleekeria vitiensis|Blepharisma japonicum|Blumea mollis|Bongardia chrysogonum|Bonnemaisonia hamifera|Boronia bipinnata|Boykinia tellimoides|Brassica rapa subsp. pekinensis|Briareum asbestinum|Brickellia veronicaefolia|Bridelia ferruginea|Brucea mollis|Buddleja cordata|Buellia canescens|Bugula neritina|Bunodosoma caissarum|Buphane fischeri|Bystropogon origanifolius|Cadophora gregata|Caiman crocodilus|Calanthe arisanensis|Calea hispida|Calendula officinalis|Callyspongia spinosissima|Capillipedium parviflorum|Capparis Flavicans|Capparis ovata|Capsicum annuum|Cardamine pinnata|Caria ino|Carissa opaca|Caryopteris spp.|Casearia esculenta|Cassia jahnii|Cassia renigera|Cassine papillosa|Castanea dentata|Catha edulis|Caulerpa serrulata|Ceanothus velutinus|Cedrus libani|Centaurea armena|Centaurea benedicta|Centaurea sessilis|Centella asiatica|Ceramium rubrum|Cerbera dilatata|Cetraria ciliaris|Chamaemelum fuscatum|Chamonixia caespitosa|Channa argus|Charpentiera obovata|Chloranthus fortunei|Chlorophytum borivilianum|Choisya arizonica|Chresta sphaerocephala|Chrysanthemum indicum|Chrysanthemum x morifolium|Chrysanthemum zawadskii|Chrysosplenium oppositifolium|Chrysosporium queenslandicum|Chuquiraga erinacea|Cinamomum cassia|Cinnamomum aromaticum|Cinnamomum illicioides|Cinnamomum spp.|Cinnamomum subavenium|Cirsium microspicatum|Cistus albidus|Cistus creticus|Citrus aurantifolia|Citrus aurantium|Citrus grandis|Citrus hystrix|Citrus limon|Citrus limonia|Citrus maxima|Citrus medica|Citrus natsudaidai|Citrus paradisi|Citrus reticulata|Citrus sinensis|Citrus spp.|Citrus trifoliata|Citrus unshiu|Cladogynos orientalis|Cladosporium cladosporioides|Clathria prolifera|Clerodendrum brachyanthum|Clusia ellipticifolia|Cneorum pulverulentum|Cnidium monieri|Cnidium monnieri|Codonocarpus australis|Codonopsis pilosula|Colubrina greggii|Comatula cratera|Commiphora holtziana|Conus pulicarius|Copaifera|Copaifera spp.|Coreopsis nodosa|Cornulaca monacantha|Cota saguramica|Crambe tatarica|Crateva nurvala|Croton montevidensis|Croton zambesicus|Cryptocarya angulata|Cryptocarya triplinervis|Cryptomeria japonica var. sinensis|Cucumaria frondosa|Cuminum cyminum L.|Cuphea hyssopifolia|Cupressus sempervirens|Curcuma aeruginosa|Curcuma amanda Roxb|Curcuma kwangsiensis|Curcuma longa|Curcuma phaeocaulis|Curcuma wenyujin|Curcuma xanthorrhiza|Curcuma zedoaria|Curcuma zedoria|Cyberlindnera jadinii|Cyclosorus interruptus|Cynanchum auriculatum|Cynanchum sibiricum|Cynanchum stauntoni|Cyperus alopecuroides|Cyperus rotundus|Cyperus rotundus L.|Cyphelium chrysocephalum|Dacrydium cupressinum|Dacryodes normandii|Dalea versicolor|Damnacanthus major|Dasymaschalon blumei|Datisca glomerata|Daucus carota|Delphinium shawurense|Dendropanax trifidus|Dianthus caryophyllus L.|Dicranopteris pedata|Dimocarpus fumatus|Dioscorea olfersiana|Diospyros eriantha|Diospyros verrucosa|Dipterocarpus dyeri|Dolomiaea souliei|Doriopsilla areolata|Drepanospora viridis|Dryopteris abbreviata|Duboisia myoporoides|Dumoria heckeli|Dysidea amblia|Ecballium elaterium|Echinoclathria subhispida|Echinus microtuberculatus|Elaphoglossum lindbergii|Elephas maximus|Elettaria cardamomum|Elizabethkingia meningoseptica|Elsholtzia ciliata|Entandrophragma spicatum|Epimedium sagittatum|Eragrostis curvula|Eria rigida|Eriogonum nudum|Erythrina sandwicensis|Eucalyptus citriodora|Eucalyptus hybr|Eucalyptus perriniana|Eucalyptus spp.|Eugenia caryophyllata|Eugenia zuchowskiae|Euglena longa|Euglena viridis|Euodia bodinieri|Euodia officinalis|Euodia ruticarpa|Euonymus nanoides|Euphausia pacifica|Euphorbia balsamifera|Euphorbia bivonae|Euphorbia officinarum subsp. echinus|Euphorbia palustris|Euphorbia pithyusa|Euplotes raikovi|Euryops hebecarpus|Eusynstyela misakiensis|Evodia rutaecarpa|Fagara ailanthoides|Fagara leprieurii|Fagraea gracilipes|Fagus fusca|Farfugium japonicum|Felimare midatlantica|Ferula ammoniacum|Ferula assafoetida|Ferula fukanensis|Ferula sinkiangensis|Fissistigma pallens|Flacourtia inermis|Foeniculum vulgare|Fouquieria diguetii|Fragaria moschata|Fragaria vesca|Fragaria x ananassa|Fritillaria hupehensis|Fritillaria meleagris|Fritillaria ningguoensis|Frullania aterrima var. aterrima|Frullania falciloba|Frullania monocera|Frullania probosciphora|Frullania pycnantha|Frullania spinifera|Gackstroemia magellanica|Galeocerdo arcticus|Galipea panamensis|Garcinia scortechinii|Garcinia xipshuanbannaensis|Gardenia tubifera|Gentiana lutea|Geranium stepporum|Glehnia littoralis|Glycine canescens|Glycine tomentella|Guarea macrophylla ssp.tuberculata|Guatteriopsis blepharophylla|Guatteriopsis hispida|Gutierrezia lucida|Gynoxys verrucosa|Haematococcus lacustris|Haplopappus arbutoides|Helenium mexicanum|Helichrysum auriceps|Helichrysum graveolens|Helichrysum oreophilum|Helichrysum stenopterum|Hepialus hecta|Herba ecliptae prostratae|Hoffmannia strigillosa|Holarrhena floribunda|Holothuria squamifera|Homo sapiens (Exhaled breath)|Houttuynia cordata|Houttuynia emeiensis|Hubertia tomentosa|Humulus lupulus|Hyacinthoides hispanica|Hydnocarpus venenata|Hygrophila polysperma|Hypericum perforatum|Hypogymnia vittata|Hypoxylon rubiginosum|Ibacus peronii|Illicium difengpi|Illicium verum|Incarvillea emodi|Inga umbellifera|Inula helenium|Iotrochota purpurea|Ipomoea cairica|Ipomoea hederacea|Iryanthera paraensis|Isodon adenolomus|Isodon lophanthoides|Isophysis tasmanica|Jacobaea subalpina|Jasus lalandii|Juniperus chinensis|Juniperus oxycedrus|Juniperus rigida var. conferta|Juniperus spp.|Kopsia grandifolia|Lactarius flavidulus|Lactifluus subvellereus|Lactobacillus casei|Laggera pterodonta|Lambertella hicoriae|Lamium maculatum|Lantana camara|Lantana camara L.|Lasianthus fordii|Lasioderma serricorne|Lathyrus latifolius|Lathyrus nissolia|Laurilia sulcata|Lavandula spp.|Lecanora rupicola|Ledebouria socialis|Lemaireocereus griseus|Leonurus heterophyllus|Leonurus persicus|Lepia marginata|Lepidozia fauriana|Lepraria chlorina|Leptospermum scoparium|Leucocarpus perfoliatus|Ligustrum obtusifolium|Linckia guildingi|Linum capitatum|Liquidambar orientalis|Lithocolletis coryli|Lithospermum erythrorhizon|Litsea cubeba|Lobelia chinensis|Lobophora variegata|Lonchocarpus laxiflorus|Lonicera japonica|Lotus ucrainicus|Lycopersicon esculentum|Lycopodium casuarinoides|Lycopus europaeus|Macleaya cordata|Maesopsis eminii|Magnolia biondii|Magnolia denudata|Magnolia kobus|Magnolia obovata|Magnolia officinalis|Magnolia salicifolia|Magnolia sieboldii|Magnolia sprengeri|Malus sieboldii|Mamestra brassicae|Mantella aurantiaca|Marsilea quadrifolia|Marsypianthes chamaedrys|Mastophora hutchinsoni|Matricaria matricarioides|Maytenus obtusifolia|Mcneillia graminifolia|Melaleuca leucadendra|Melaleuca leucadendra L.|Mentha arvensis|Mentha arvensis L.|Mentha canadensis|Mentha crispa|Mentha piperita|Mentha piperita L.|Mentha pulegium L.|Mentha spp.|Mespilodaphne pretiosa|Metasequoia glyptostroboides|Metridium senile|Micranthes stellaris|Microsphaeropsis olivacea|Millettia erythrocalyx|Mitrephora glabra|Monnina sylvatica|Mortierella elongata|Mosla chinensis|Mucuna sloanei|Mulguraea tridens|Murraya exotica|Murraya paniculata|Mycale cecilia|Mycale laxissima|Mycobacterium leprae|Mycobacterium tuberculosis|Myelobia smerintha|Myelochroa rhytidodes|Myristica cagayanensis|Myristica fragrans|Myrtus communis|Negombata magnifica|Nepeta cadmea|Nephthea erecta|Nervilia fordii|Nicotiana alata|Nicotiana cavicola|Nicotiana ingulba|Nicotiana langsdorffii|Nicotiana mutabilis|Nicotiana undulata|Notholaena peninsularis|Ochrocarpos odoratus|Ocimum kenyense|Ocotea meziana|Ocotea sinuata|Ocotea whitei|Oenanthe javanica|Oldenlandia diffusa|Olea paniculata|Oleum pogostemonis|Oligonychus bessardi|Ononis vaginalis|Ononis viscosa|Ophidiaster ophidianus|Ophiura leptoctenia|Ormosia balansae|Oxytropis pseudoglandulosa|Paenibacillus polymyxa|Panax ginseng|Panax innovans|Panax notoginseng|Panax quinquefolius|Panax schinseng|Papilio xuthus|Parectatosoma mocquerysi|Parmelia barbata|Passiflora incarnata|Pecten jacobaeus|Pedicularis plicata|Pedicularis rex|Pellia epiphylla|Pellicularia sasakii|Peltigera venosa|Peltogyne porphyrocardia|Penicillium abidjanum|Penicillium cinerascens|Penicillium pedemontanum|Peniophora filamentosa|Penstemon acuminatus|Penstemon confertus|Periconia atropurpurea|Perilla frutescens|Perilla ocimoides|Perovskia abrotanoides|Persea mexicana|Petasites japonicus|Peucedanum paniculatum L.|Phebalium dentatum|Phialocephala fortinii|Philodendron guttiferum|Pholiota adiposa|Phoma herbarum|Photinia glabra|Phylica rogersii|Phyllanthus emblica|Phyllanthus oligospermus|Phyllobates bicolor|Physalis pubescens|Physcomitrella patens|Pimelea linifolia|Pimenta dioica|Pinellia ternata|Pinus brutia var. eldarica|Pinus edulis|Pinus eldarica|Pinus halepensis|Pinus kochiana|Pinus pallasiana|Pinus parviflora|Pinus sitchensis|Pinus sosnowskyi|Pinus spp.|Pinus sylvestris L.var.sylvestris.|Piper arboreum|Piper attenuatum|Piper cubeba|Piper nigrum|Piptocarpha chontalensis|Pistacia atlantica|Pittosporum viridiflorum|Plantago hookeriana|Plantago lundborgii|Platycladus orientalis|Pleodendron costaricense|Pleogyne cunninghami|Pleogyne cunninghamii|Plexaurella grisea|Pogostemon cablin|Polygala amara|Polygala crotalarioides|Polygala paniculata|Polygonum flaccidum|Polygonum minus|Populus lasiocarpa|Portulaca okinawensis|Posidonia oceanica|Prorocentrum micans|Protoparmeliopsis peltata|Pseudallescheria boydii|Pseudeurotium zonatum|Pseudocedrela kotschyi|Pseudocyphellaria coronata|Pseudodistoma megalarva|Pseudotaxus chienii|Pseudowintera colorata|Pteris semipinnata|Pterocarpus dalbergioides|Pterocarpus erinaceus|Pterocladiella tenuis|Pteronia eenii|Ptilidium ciliare|Puccinia lagenophorae|Punctelia microsticta|Purpureocillium lilacinum|Pyracantha fortuneana|Pyrola decorata|Pyrrosia davidii|Pyrus bourgaeana|Quercus coccifera|Quercus imbricaria|Quercus serrata|Rabdosia flexicaulis|Radix cudraniae|Radix moghaniae philippinensis|Rapanea lancifolia|Rapanea neurophylla|Ratibida mexicana|Rhaponticum carthamoides|Rhinella arenarum|Rhodiola rosea L.|Rhodobacter sphaeroides|Rhododendron championiae|Rhynchosia densiflora|Ribes nigrum|Riccia fluitans|Roboastra tigris|Rogeria adenophylla|Roldana barba-johannis|Rosmarinus officinalis|Rothmannia urcelliformis|Rubus rosa|Rubus sanctus|Rumphella aggregata|Saccharomyces pastori|Salvia broussonetii|Salvia cana|Salvia canariensis L.|Salvia hispanica|Salvia spp.|Sambucus nigra|Sandoricum koetjape|Santolina rosmarinifolia|Sapium sebiferum|Saussurea lappa|Scapania undulata|Scaphechinus mirabilis|Schinus terebinthus|Schisandra chinensis|Schizanthus integrifolius|Schizonepeta multifida|Schizonepeta tenuifolia|Schizonepeta tenuisfolia|Scorzonera pseudodivaricata|Scrophularia buergeriana|Scrophularia koelzii|Scutellaria albida|Scutellaria barbata|Scutellaria lateriflora|Sedum sarmentosum|Senecio coahuilensis|Senecio fuertesii|Senecio othonniformis|Senecio paludaffinis|Senecio pauciligulatus|Senecio salignus|Senegalia tenuifolia|Senna alexandrina|Septoria pistaciarum|Serratula wolfi|Serratula xeranthemoides|Sideritis arborescens|Sideritis cystosiphon|Sigillina signifera|Sinomenium acutum|Sinularia manaarensis|Siphonaria australis|Sirodesmium diversum|Smilax glaucochina|Solanum andigena|Solanum angustifolium|Solanum lycopersicum|Solanum pseudoquina|Solenostoma triste|Solidago canadensis|Sonchus gummifer|Sorbus torminalis|Sordaria araneosa|Sphaerella rubella|Sphaeria biglobosa|Sphaeria doliolum|Spiracantha cornifolia|Stachys tuberifera|Stauntonia hexaphylla|Stemodia maritima|Stephania hispidula|Stephania sutchuenensis|Stereocaulon ramulosum|Stevia achalensis|Stichopus parvimensis|Stilpnopappus pickelii|Streptomyces avellaneus|Streptomyces ehimensis|Streptomyces flocculus|Streptomyces fumanus|Streptomyces lavendofoliae|Streptomyces odorifer|Streptomyces platensis|Streptomyces prunicolor|Strychnos triplinervia|Suaeda maritima|Swertia decora|Swertia japonica|Syncarpia hillii|Syzygium aromaticum|Tachardia acaciae|Tachigalia paniculata|Tagetes minuta|Talaromyces aculeatus|Tanacetum annuum|Tanacetum vulgare|Taraxacum udum|Tersonia brevipes|Tessaria dodoneaefolia|Tethya amamensis|Tetracera boiviniana|Tetradenia riparia|Tetraneuris acaulis|Teucrium luteum|Teucrium polium subsp. polium|Teucrium scorodonia L. subsp. baeticum|Thalictrum sachalinense|Thelephora aurantiotincta|Theonella cupola|Thermotoga maritima|Thioalkalivibrio versutus|Thymus piperella|Thymus quinquecostatus|Thymus spp.|Thymus vulgaris|Tium alpinum|Tolypothrix nodosa|Torilis japonica|Torulopsis magnoliae|Trichadenia zeylanica|Trichogonia grazielae|Tricholoma scalpturatum|Trichostema lanceolatum|Trifolium hybridum|Trifolium medium|Trifolium repens|Trifolium repens L.|Trigonella grandiflora|Tripolium pannonicum|Tritomaria quinquedentata|Triunia erythrocarpa|Trypetheliopsis boninensis|Tunica prolifera|Turbo argyrostoma|Tylophora atrofolliculata|Tylophora tanakae|Umbilicaria spodochroa|Unonopsis glaucopetala|Usnea magellanica|Uvaria calamistrata|Uvaria chamae|Vaccaria hispanica|Valeriana jatamansi|Valeriana officinalis|Vallesia glabra|Venegasia carpesioides|Venidium hirsutum|Veratrum eschscholtzii|Verbesina virgata|Vernonia polyanthes|Vicoa vestita|Vincetoxicum glaucescens|Vincetoxicum stauntonii|Viscum multinerve|Vitex negundo|Viviparus japonicus|Widely distributed in plant|Xanthoparmelia xanthosorediata|Xenia puertogalerae|Xenoacremonium recifei|Xylosalsola richteri|Xyris semifuscata|Zanthoxylum bungeanum|Zanthoxylum piperitum|Zanthoxylum schinifolium|Zieria smithii|Zingiber cassumunar Roxb.|Zingiber officinale|Ziziphus jujuba

>  <collections>  (149) 
ANPDB|BIOFACQUIM|CMAUP (cCollective molecular activities of useful plants)|ChEBI NPs|InflamNat|KNApSaCK|Latin America dataset|NANPDB (Natural Products from Northern African Sources)|NPACT|NPASS|NPEdia|Super Natural II|TCMDB-Taiwan (Traditional Chinese Medicine database)|TIPdb (database of Taiwan indigenous plants)|VietHerb

>  <dois>  (149) 
10.1016/0031-9422(83)85029-8|10.1016/S0031-9422(01)00067-X|10.1016/j.biopha.2017.04.092|10.1021/jm201451h|10.1021/np060180b|10.1021/np400872m|10.1021/np50085a029|10.1515/znc-2006-7-801|10.3390/molecules17021437

>  <synonyms>  (149) 
87-44-5|Bicyclo7.2.0undec-4-ene| 4|11|11-trimethyl-8-methylene-| (1R|4E|9S)-|b-caryophyllene|Widely distributed in plant|(E)-Caryophyllene|(E)-beta-caryophyllene|beta-bourbonene|patechoulene|beta-Caryophyllene|cis-caryophyllene

>  <cas>  (149) 
87-44-5

$$$$

     RDKit          2D

 12 13  0  0  0  0  0  0  0  0999 V2000
   -3.8971   -1.2500    0.0000 O   0  0  0  0  0  0  0  0  0  0  0  0
   -2.5981   -0.5000    0.0000 C   0  0  0  0  0  0  0  0  0  0  0  0
   -2.5981    1.0000    0.0000 C   0  0  0  0  0  0  0  0  0  0  0  0
   -1.2990    1.7500    0.0000 C   0  0  0  0  0  0  0  0  0  0  0  0
   -0.0000    1.0000    0.0000 C   0  0  0  0  0  0  0  0  0  0  0  0
    1.2990    1.7500    0.0000 C   0  0  0  0  0  0  0  0  0  0  0  0
    2.5981    1.0000    0.0000 C   0  0  0  0  0  0  0  0  0  0  0  0
    2.5981   -0.5000    0.0000 C   0  0  0  0  0  0  0  0  0  0  0  0
    3.8971   -1.2500    0.0000 O   0  0  0  0  0  0  0  0  0  0  0  0
    1.2990   -1.2500    0.0000 C   0  0  0  0  0  0  0  0  0  0  0  0
   -0.0000   -0.5000    0.0000 C   0  0  0  0  0  0  0  0  0  0  0  0
   -1.2990   -1.2500    0.0000 O   0  0  0  0  0  0  0  0  0  0  0  0
  1  2  2  0
  2  3  1  0
  3  4  2  0
  4  5  1  0
  5  6  2  0
  6  7  1  0
  7  8  2  0
  8  9  1  0
  8 10  1  0
 10 11  2  0
 11 12  1  0
 12  2  1  0
 11  5  1  0
M  END
>  <identifier>  (150) 
CNP0291283.0

>  <canonical_smiles>  (150) 
O=C1C=CC2=CC=C(O)C=C2O1

>  <standard_inchi>  (150) 
InChI=1S/C9H6O3/c10-7-3-1-6-2-4-9(11)12-8(6)5-7/h1-5,10H

>  <standard_inchi_key>  (150) 
ORHBXUUXSCNDEV-UHFFFAOYSA-N

>  <name>  (150) 
Umbelliferone

>  <iupac_name>  (150) 
7-hydroxychromen-2-one

>  <annotation_level>  (150) 
5

>  <total_atom_count>  (150) 
18

>  <heavy_atom_count>  (150) 
12

>  <molecular_weight>  (150) 
162.14

>  <exact_molecular_weight>  (150) 
162.03169

>  <molecular_formula>  (150) 
C9H6O3

>  <alogp>  (150) 
1.50

>  <topological_polar_surface_area>  (150) 
50.44

>  <rotatable_bond_count>  (150) 
0

>  <hydrogen_bond_acceptors>  (150) 
3

>  <hydrogen_bond_donors>  (150) 
1

>  <hydrogen_bond_acceptors_lipinski>  (150) 
3

>  <hydrogen_bond_donors_lipinski>  (150) 
1

>  <lipinski_rule_of_five_violations>  (150) 
0

>  <aromatic_rings_count>  (150) 
2

>  <qed_drug_likeliness>  (150) 
0.60

>  <formal_charge>  (150) 
0

>  <fractioncsp3>  (150) 
0.00

>  <number_of_minimal_rings>  (150) 
2

>  <van_der_walls_volume>  (150) 
136.01

>  <contains_sugar>  (150) 
False

>  <contains_ring_sugars>  (150) 
False

>  <contains_linear_sugars>  (150) 
False

>  <murcko_framework>  (150) 
O1c2ccccc2C=CC1

>  <np_likeness>  (150) 
1.11

>  <chemical_class>  (150) 
Coumarins and derivatives

>  <chemical_sub_class>  (150) 
Hydroxycoumarins

>  <chemical_super_class>  (150) 
Phenylpropanoids and polyketides

>  <direct_parent_classification>  (150) 
7-hydroxycoumarins

>  <np_classifier_pathway>  (150) 
Shikimates and Phenylpropanoids

>  <np_classifier_superclass>  (150) 
Coumarins

>  <np_classifier_class>  (150) 
Simple coumarins

>  <np_classifier_is_glycoside>  (150) 
False

>  <organisms>  (150) 
Abelia chinensis|Abelmoschus esculentus|Acacia ehrenbergiana|Acer caudatifolium|Achillea biebersteinii|Aconitum heterophyllum|Actinomadura hibisca|Adina cordifolia|Adonis amurensis|Adonis tienschanicus|Aegle marmelos|Aeonium cuneatum|Agathis macrophylla|Ageratina tomentella|Alchornea cordifolia|Alexandrium excavatum|Althaea officinalis|Amomum daniellii|Anastrepha suspensa|Anethum graveolens|Angelica acutiloba|Angelica dahurica|Angelica decursiva|Angelica furcijuga KITAGAWA|Angelica gigas|Angelica pubescens|Angelica pubescens f.biserrata|Angelica sinensis|Angelica spp.|Aniba duckei|Anisopappus pinnatifidus|Apium spp.|Aplophyllum alberti-regelii|Aralia continentalis|Aralia fargesii|Armillaria tabescens|Arracacia tolucensis|Artemisia argyi|Artemisia capillaris|Artemisia dracunculus|Artemisia gilvescens|Artemisia minor|Artemisia montana|Artemisia princeps|Asimina parviflora|Aspergillus caespitosus|Aspergillus phoenicis|Aspidixia articulata|Astilbe koreana|Astragalus brachycarpus|Astragalus sinicus|Astragalus zahlbruckneri|Atalantia wightii|Atractylodes lancea|Atractylodes macrocephala|Atraphaxis spinosa|Atropa belladonna|Auricularia auricula-judae|Axinella cannabina|Baccharis alaternoides|Baccharis eggersii|Baccharis macraei|Baccharis neglecta|Balanophora japonica|Biebersteinia heterostemon|Biebersteinia orphanidis|Blebersteinia heterostemon|Boronia muelleri|Bothrops jararaca|Botryosphaeria berengeriana|Bryophyllum calycinum|Burkholderia cepacia|Calcarisporium thermophilum|Caltha palustris|Candelaria vitellina|Caralluma stalagmifera|Cassia carnaval|Castanopsis eyrei|Castilleja integra|Centaurea maculosa|Ceratocystis fimbriata|Chamaecyparis formosensis|Cheilanthes chusana|Chondrodendron tomentosum|Chondrosia reniformis|Choriaster granulatus|Chrysanthemum leptophyllum|Citrullus lanatus|Citrus aurantium|Citrus grandis|Citrus maxima|Citrus medica|Citrus natsudaidai|Citrus paradisi|Citrus sinensis|Citrus sinensis cv.Valencia|Citrus trifoliata|Citrus wilsonii|Clausena anisata|Clausena excavata|Clerodendrum bungei|Colchicum macedonicum|Conocephalum supradecompositum|Conoideocrella tenuis|Conus mus|Conyza bonariensis|Copaifera langsdorffii|Coprosma acerosa|Coptis deltoidea|Cordia leucocephala|Coronilla valentina|Coronilla varia|Corydalis persica|Corynanthe pachyceras|Cota tinctoria|Coussarea paniculata|Cranfillia vulcanica|Crepidotus fulvotomentosus|Crocodylus niloticus|Cryptocarya infectoria|Cyanospira rippkae|Cymathere triplicata|Cynoglossum amabile|Cynoglossum formosanum|Cystoseira caespitosa|Daiswa dunniana|Dalbergia frutescens|Dalbergia sericea|Daphne feddei|Daphne odora|Daphne odora Thunb.|Daphne oleoides ssp. oleoides|Datura stramonium|Daucus carota|Dendronephthya griffini|Diaporthe amygdali|Dicliptera riparia|Dictamnus angustifolius|Dictamnus gymnostylis|Dillenia papuana|Dioscorea gracillima|Diospyros assimilis|Dolabella californica|Dorstenia brasiliensis|Dorstenia turbinata|Drymaria cordata|Durio oxleyanus|Echium italicum|Echium rubrum|Eichhornia crassipes|Elsholtzia cristata|Embelia parviflora|Embelia schimperi|Entada africana|Entada polystachya|Ephedra sinica|Epilachna varivestis|Epilobium hirsutum|Eria anomala|Eriostemon crowei|Eriostemon tomentellus|Erwinia rhapontici|Erysimum leptophyllum|Erythrina melanacantha|Erythroxylum passerinum|Esenbeckia leiocarpa|Eucalyptus decorticans|Eucommia ulmoides|Eugenia sandwicensis|Eunicea pinta|Euphorbia caducifolia|Euphorbia ebracteolata|Euphorbia fischeriana|Euphorbia hirta|Euphorbia humifusa|Euphorbia lathyris|Euphorbia nematocypha|Euryops rupestris|Euthamia graminifolia|Fagopyrum tataricum|Falcaria vulgaris|Faramea salicifolia|Favolaschia tonkinensis|Ferula assa-foetida|Ferula diversivittata|Ferula spp.|Ferula szovitsiana|Ficus carica|Ficus cunninghamii|Ficus elastica|Ficus nervosa|Flemingia rhodocarpa|Foeniculum vulgare|Fructus mori|Fuligo candida|Fumaria indica|Glehnia littoralis|Globicephala melas|Glycosmis pseudoracemosa|Grateloupia livida|Gymnocalycium schickendantzii|Hansenia forbesii|Hansenia weberbaueriana|Haplophyllum obtusifolium|Haplophyllum patavinum|Helianthopsis bishopii|Helichrysum tenuifolium|Hendersonula toruloidea|Heracleum candicans WALL.|Heracleum dissectum|Heracleum granatense|Heracleum spp.|Holarrhena febrifuga|Homo sapiens|Hydrangea chinensis|Hydrangea macrophylla Ser.var.thunbergii Makino.|Hydrangea paniculata|Hydrangea vestita|Hydrocotyle leucocephala|Hygrophorus eburneus|Hymenocallis speciosa|Hypericum carinatum|Hypericum papuanum|Hypericum styphelioides|Hyphear tanakae|Hypholoma capnoides|Hypoxylon carneum|Hypselodoris cantabrica|Iberis sempervirens|Ilex kaushue|Ilyonectria destructans|Impatiens siculifer|Inula grantioides|Inula helenium|Inula helenium L.|Inula thapsoides|Ipomoea purpurea|Isodon gesneroides|Juniperus horizontalis|Kaunia arbuscularis|Khaya ivorensis|Kloeckera brevis|Lactarius deliciosus var. deterrimus|Laetia corymbulosa|Lathyrus tingitanus|Latrunculia magnifica|Lemaireocereus longispinus|Lepia marginata|Leucocyclus formosus|Ligularia pleurocaulis|Ligusticum multivittatum|Limeum pterocarpum|Limnocitrus littoralis|Lindera glauca|Liparis condylobulbon|Lithospermum canescens|Litsea verticillata|Lonchocarpus salvadorensis|Lupinus formosus|Lycogala epidendrum|Lythrum salicaria|Macrocystidia cucumis|Mandragora autumnalis|Marshallia graminifolia|Marsypianthes chamaedrys|Matricaria discoidea|Melilotus alba|Melilotus suaveolens|Metrodorea nigra|Mikania goyazensis|Monodora brevipes|Monomeria barbata|Monsonia senegalensis|Morella rubra|Morinda citrifolia|Morus alba|Morus bombycis|Morus cathayana|Murraya siamensis|Myxococcus stipitatus|Nama johnstonii|Nepeta cadmea|Nephthea erecta|Nerita albicilla|Nierembergia hippomanica|Nigritella suaveolens|Nocardia brasiliensis|Oenanthe fistulosa|Onobrychis kemularia|Onobrychis kemulariae|Onopordum acanthium|Ophioglossum petiolatum|Ostericum grosseserratum|Oxandra xylopioides|Oxytropis ochrocephala|Oyedaea verbesinoides|Pajanelia multijuga|Palicourea alpina|Pancratium sickenbergeri|Parmelia enteromorpha|Peddiea fischeri|Persicaria thunbergii|Peucedanum bourgaei Lange in Wilk.et Lange.|Peucedanum oroselinum|Peucedanum praeruptorum|Peucedanum praeruptorum DUNN.|Peyrousea umbellata|Pharbitis nil|Phaseolus vulgaris|Phellodendron amurense|Phellodendron japonicum MAXIM|Phlojodicarpus sibiricus|Physochlaina physaloides|Picramnia antidesma|Picramnia latifolia|Picramnia teapensis Tul.|Picrasma quassioides|Picris evae|Pimpinella anisum|Pimpinella spp.|Piper regnellii|Pituranthos triradiatus|Planchonia grandis|Plathymenia reticulata|Platycarpha glomerata|Platytaenia dasycarpa|Plectosphaerella cucumerina|Plectranthus caninus|Plectranthus nummularius|Polygonum mite|Polypodiodes formosana|Poncirus trifoliata|Posoqueria latifolia|Prosopis spicigera|Pseuduvaria indochinensis|Pteridium esculentum|Pteris setuloso-costulata|Purpureocillium lilacinum|Pyrola calliantha|Rabdosia loxothyrsa|Rauvolfia salicifolia|Rhinacanthus nasutus|Rhinanthus glaber|Rhinella marina|Rhizoplaca baranowii|Rhodiola sacra|Rhododendron dauricum|Rhododendron mucronulatum|Rhodomyrtus tomentosa|Rhodopila globiformis|Roemeria carica|Rosa transmorrisonensis|Rubus xanthocarpus|Rumex pulcher|Rumohra adiantiformis|Ruta chalepensis|Ruta graveolens|Ruta graveolens L.|Salacia cordata|Salix sieboldiana|Salmonella enterica subsp. enterica serovar bovismorbificans|Salvia oxyodon|Salvia xalapensis|Sambucus ebulus|Saussurea laniceps|Schumanniophyton magnificum|Scolytus multistriatus|Scrophularia smithii|Securigera elegans|Sedum ewersii|Selaginella pulvinata|Selaginella tamariscina|Serratula strangulata|Serratula wolffii|Seseli webbii Cosson.|Severinia buxifolia|Shigella dysenteriae|Simarouba glauca|Siphonaria capensis|Solanum aculeatissimum|Solanum aculeatum|Solanum berthaultii|Solanum torvum|Sophora davidii|Sophora flavescens|Sphoeroides vermicularis|Spongia lamellosa|Stellera chamaejasme|Stellera chamaejasme L.|Streptomyces avellaneus|Streptomyces cellulosae TES17|Streptomyces fulvoviridis|Streptomyces griseus|Streptomyces incarnatus|Streptomyces xanthocidicus|Strychnos spinosa|Syzygium polycephaloides|Tanacetum santolinoides|Tetradium glabrifolium|Teucrium pernyi|Theonella conica|Thiocystis gelatinosa|Tium alpinum|Tordylium apulum|Tornabea scutellifera|Tortrix viridana|Trametes feei|Tricholoma columbetta|Trichomanes reniforme|Trifolium alexandrium|Trifolium pratense|Tylophora flava|Typha domingensis|Vellozia nanuzae|Vernonia fagifolia|Vernonia megapotamica|Vicia sativa|Vigna radiata|Virola sebifera|Vitex limonifolia|Wikstroemia elliptica|Woodsia scopulina|Wunderlichia mirabilis|Xerula melanotricha|Zanthoxylum schinifolium|Zanthoxylum spinosum|Zanthoxylum wutaiense|Zeora sordida|Zilla spinosa|pterocaulon sp.

>  <collections>  (150) 
ANPDB|AfroCancer|AnalytiCon Discovery NPs|Australian natural products|BIOFACQUIM|BitterDB|CMAUP (cCollective molecular activities of useful plants)|ChEBI NPs|ChemSpider NPs|ConMedNP|EMNPD|ETM (Ethiopian Traditional Medicine) DB|FooDB|HIM (Herbal Ingredients in-vivo Metabolism database)|KNApSaCK|Latin America dataset|NANPDB (Natural Products from Northern African Sources)|NPASS|NPEdia|NuBBEDB|Phenol-explorer|Phyto4Health|PubChem NPs|Specs Natural Products|StreptomeDB|Super Natural II|TCMDB-Taiwan (Traditional Chinese Medicine database)|TCMID (Traditional Chinese Medicine Integrated Database)|TIPdb (database of Taiwan indigenous plants)|TPPT (Toxic Plants–PhytoToxins)|UEFS (Natural Products Databse of the UEFS)|UNPD (Universal Natural Products Database)|VietHerb|Watermelon|p-ANAPL

>  <dois>  (150) 
10.1002/9780470744307.gat218|10.1002/biuz.19840140514|10.1002/food.19880321030|10.1016/0031-9422(95)00504-Z|10.1016/j.ejmech.2008.06.003|10.1016/j.ejmech.2012.09.007|10.1016/j.foodchem.2008.08.067|10.1016/j.jep.2007.05.015|10.1021/ac900166a|10.1021/acs.jnatprod.0c00551|10.1021/jf0259361|10.1021/np100621c|10.1021/np50026a020|10.1021/np50046a031|10.1038/nbt.2488|10.1055/s-2006-962158.pdf|10.1071/ch9640975|10.1128/aem.46.2.468-474.1983|10.1186/s12906-018-2154-4

>  <synonyms>  (150) 
7-hydroxycoumarin|93-35-6|7-Hydroxy-2H-chromen-2-one|Hydrangin|Skimmetin|7-Oxycoumarin|Umbelliferon|2H-1-Benzopyran-2-one| 7-hydroxy-|7-Hydroxy-2H-1-benzopyran-2-one|beta-Umbelliferone|Coumarin| 7-hydroxy-|7-hydroxychromen-2-one|7 HC|NSC 19790|CCRIS 3591|EINECS 202-240-3|UNII-60Z60NTL4G|MFCD00006878|2-Hydroxy-7H-chromen-7-one|BRN 0127683|60Z60NTL4G|32922-68-2|CHEBI:27510|AI3-38054|7 OH COUMARIN|NSC-19790|CHEMBL51628|7-HC|DTXSID5052626|5-18-01-00386 (Beilstein Handbook Reference)|7-oxidanylchromen-2-one|7-hydroxycoumarin| 14C-labeled|Dichrin A|07L|Umbelliferone| 99%|AURAPTENE_met001|Coumarin derivative| 3a|Spectrum2_001962|Spectrum3_000751|7-hydroxycoumarin sulphate|UMBELLIFERONE MI|7-Hydroxy Coumarin |(S)|BIDD:PXR0126|SCHEMBL22018|BSPBio_002362|SPECTRUM231084|MLS002207035|BIDD:ER0671|SPBio_002083|UMBELLIFERONE WHO-DD|MEGxp0_000814|DTXCID9031199|ACon1_000219|KBio3_001582|Umbelliferone| analytical standard|HMS1607M21|HMS2271N09|HMS3741M03|CS-D1186|HY-N0573|STR04824|BBL027620|BDBM50174558|CCG-39436|s3675|STK331042|Umbelliferone (Hydrangin| Skimmetin)|AKOS000120867|SDCCGMLS-0066941.P001|7-Hydroxycoumarin;Hydrangin;NSC 19790|NCGC00095801-01|NCGC00178691-01|1ST11436|AC-18399|AC-34707|NCI60_001646|SMR000112324|SY001924|DB-014673|H0236|NS00001324|EN300-18075|Umbelliferone| Vetec(TM) reagent grade| 98%|C09315|U-3000|A801734|A844525|Q416196|BRD-K87991767-001-02-0|Z57150899|F0722-0129|Umbelliferone| suitable for fluorescence indicator| >=98.0% (HPLC)|InChI=1\/C9H6O3\/c10-7-3-1-6-2-4-9(11)12-8(6)5-7\/h1-5|10|Umbelliferone; 7-Hydroxy-2H-1-benzopyran-2-one; 7-Oxycoumarin; Hydrangin; Skimmetin|142044-47-1|umbelliferone

>  <cas>  (150) 
93-35-6|32922-68-2|142044-47-1

$$$$

     RDKit          2D

 18 20  0  0  0  0  0  0  0  0999 V2000
    4.0879    0.7452    0.0000 C   0  0  0  0  0  0  0  0  0  0  0  0
    3.2300   -0.4852    0.0000 C   0  0  0  0  0  0  0  0  0  0  0  0
    3.8666   -1.8434    0.0000 C   0  0  0  0  0  0  0  0  0  0  0  0
    1.7354   -0.3575    0.0000 C   0  0  0  0  0  0  0  0  0  0  0  0
    1.6076   -1.8520    0.0000 O   0  0  0  0  0  0  0  0  0  0  0  0
    0.3772   -0.9941    0.0000 C   0  0  0  0  0  0  0  0  0  0  0  0
   -0.8532   -0.1361    0.0000 C   0  0  0  0  0  0  0  0  0  0  0  0
   -0.9810   -1.6307    0.0000 C   0  0  0  0  0  0  0  0  0  0  0  0
   -0.7254    1.3584    0.0000 C   0  0  0  0  0  0  0  0  0  0  0  0
    0.6328    1.9950    0.0000 C   0  0  0  0  0  0  0  0  0  0  0  0
    1.8632    1.1371    0.0000 C   0  0  0  0  0  0  0  0  0  0  0  0
    3.2214    1.7737    0.0000 O   0  0  0  0  0  0  0  0  0  0  0  0
   -1.9559    2.2163    0.0000 C   0  0  0  0  0  0  0  0  0  0  0  0
   -3.3141    1.5797    0.0000 C   0  0  0  0  0  0  0  0  0  0  0  0
   -3.4418    0.0852    0.0000 C   0  0  0  0  0  0  0  0  0  0  0  0
   -4.8001   -0.5515    0.0000 O   0  0  0  0  0  0  0  0  0  0  0  0
   -2.2114   -0.7728    0.0000 C   0  0  0  0  0  0  0  0  0  0  0  0
   -2.3392   -2.2673    0.0000 C   0  0  0  0  0  0  0  0  0  0  0  0
  1  2  2  0
  2  3  1  0
  2  4  1  0
  4  5  1  0
  6  5  1  6
  6  7  1  0
  7  8  1  1
  7  9  1  0
  9 10  2  0
 10 11  1  0
 11 12  2  0
  9 13  1  0
 13 14  1  0
 14 15  1  0
 15 16  1  6
 15 17  1  0
 17 18  1  1
  6  4  1  0
 17  7  1  0
 11  4  1  0
M  END
>  <identifier>  (151) 
CNP0275915.1

>  <canonical_smiles>  (151) 
C=C(C)C12O[C@@H]1[C@@]1(C)C(=CC2=O)CC[C@@H](O)[C@@H]1C

>  <standard_inchi>  (151) 
InChI=1S/C15H20O3/c1-8(2)15-12(17)7-10-5-6-11(16)9(3)14(10,4)13(15)18-15/h7,9,11,13,16H,1,5-6H2,2-4H3/t9-,11+,13+,14+,15?/m0/s1

>  <standard_inchi_key>  (151) 
PCBDXYONDOCJPR-VAEXESPGSA-N

>  <name>  (151) 
nan

>  <iupac_name>  (151) 
(6~{R},7~{R},7~{a}~{R},7~{b}~{R})-6-hydroxy-1~{a}-isopropenyl-7,7~{a}-dimethyl-5,6,7,7~{b}-tetrahydro-4~{H}-naphtho[1,2-b]oxiren-2-one

>  <annotation_level>  (151) 
5

>  <total_atom_count>  (151) 
38

>  <heavy_atom_count>  (151) 
18

>  <molecular_weight>  (151) 
248.32

>  <exact_molecular_weight>  (151) 
248.14124

>  <molecular_formula>  (151) 
C15H20O3

>  <alogp>  (151) 
2.01

>  <topological_polar_surface_area>  (151) 
49.83

>  <rotatable_bond_count>  (151) 
1

>  <hydrogen_bond_acceptors>  (151) 
3

>  <hydrogen_bond_donors>  (151) 
1

>  <hydrogen_bond_acceptors_lipinski>  (151) 
3

>  <hydrogen_bond_donors_lipinski>  (151) 
1

>  <lipinski_rule_of_five_violations>  (151) 
0

>  <aromatic_rings_count>  (151) 
0

>  <qed_drug_likeliness>  (151) 
0.57

>  <formal_charge>  (151) 
0

>  <fractioncsp3>  (151) 
0.67

>  <number_of_minimal_rings>  (151) 
3

>  <van_der_walls_volume>  (151) 
237.84

>  <contains_sugar>  (151) 
False

>  <contains_ring_sugars>  (151) 
False

>  <contains_linear_sugars>  (151) 
False

>  <murcko_framework>  (151) 
O1C2CC=C3CCCCC3C12

>  <np_likeness>  (151) 
3.25

>  <chemical_class>  (151) 
Prenol lipids

>  <chemical_sub_class>  (151) 
Sesquiterpenoids

>  <chemical_super_class>  (151) 
Lipids and lipid-like molecules

>  <direct_parent_classification>  (151) 
Sesquiterpenoids

>  <np_classifier_pathway>  (151) 
Terpenoids

>  <np_classifier_superclass>  (151) 
Sesquiterpenoids

>  <np_classifier_class>  (151) 
Eremophilane sesquiterpenoids

>  <np_classifier_is_glycoside>  (151) 
False

>  <organisms>  (151) 
Penicillium sp. G1-a14

>  <collections>  (151) 
BIOFACQUIM|Latin America dataset

>  <dois>  (151) 
10.1021/np5009224

>  <synonyms>  (151) 
Sporogen AO-1

>  <cas>  (151) 
nan

$$$$

     RDKit          2D

 22 24  0  0  0  0  0  0  0  0999 V2000
   -4.1454    0.7041    0.0000 C   0  0  0  0  0  0  0  0  0  0  0  0
   -4.7041   -0.6880    0.0000 C   0  0  0  0  0  0  0  0  0  0  0  0
   -5.2628   -2.0800    0.0000 C   0  0  0  0  0  0  0  0  0  0  0  0
   -6.0961   -0.1293    0.0000 O   0  0  0  0  0  0  0  0  0  0  0  0
   -3.3120   -1.2467    0.0000 C   0  0  0  0  0  0  0  0  0  0  0  0
   -3.0998   -2.7316    0.0000 O   0  0  0  0  0  0  0  0  0  0  0  0
   -2.1321   -0.3205    0.0000 C   0  0  0  0  0  0  0  0  0  0  0  0
   -0.7401   -0.8792    0.0000 O   0  0  0  0  0  0  0  0  0  0  0  0
    0.4398    0.0470    0.0000 C   0  0  0  0  0  0  0  0  0  0  0  0
    0.2277    1.5319    0.0000 C   0  0  0  0  0  0  0  0  0  0  0  0
   -1.0178    2.3679    0.0000 C   0  0  0  0  0  0  0  0  0  0  0  0
   -0.6077    3.8107    0.0000 C   0  0  0  0  0  0  0  0  0  0  0  0
    0.8913    3.8665    0.0000 O   0  0  0  0  0  0  0  0  0  0  0  0
    1.4076    2.4581    0.0000 C   0  0  0  0  0  0  0  0  0  0  0  0
    2.7996    1.8994    0.0000 C   0  0  0  0  0  0  0  0  0  0  0  0
    3.0118    0.4145    0.0000 C   0  0  0  0  0  0  0  0  0  0  0  0
    1.8319   -0.5117    0.0000 C   0  0  0  0  0  0  0  0  0  0  0  0
    2.0441   -1.9966    0.0000 C   0  0  0  0  0  0  0  0  0  0  0  0
    3.4361   -2.5553    0.0000 C   0  0  0  0  0  0  0  0  0  0  0  0
    4.6160   -1.6291    0.0000 C   0  0  0  0  0  0  0  0  0  0  0  0
    6.0081   -2.1878    0.0000 O   0  0  0  0  0  0  0  0  0  0  0  0
    4.4039   -0.1442    0.0000 O   0  0  0  0  0  0  0  0  0  0  0  0
  1  2  1  0
  2  3  1  0
  2  4  1  0
  2  5  1  0
  5  6  1  6
  5  7  1  0
  7  8  1  0
  8  9  1  0
  9 10  2  0
 10 11  1  0
 11 12  2  0
 12 13  1  0
 13 14  1  0
 14 15  2  0
 15 16  1  0
 16 17  2  0
 17 18  1  0
 18 19  2  0
 19 20  1  0
 20 21  2  0
 20 22  1  0
 17  9  1  0
 14 10  1  0
 22 16  1  0
M  END
>  <identifier>  (152) 
CNP0162174.1

>  <canonical_smiles>  (152) 
CC(C)(O)[C@@H](O)COC1=C2C=COC2=CC2=C1C=CC(=O)O2

>  <standard_inchi>  (152) 
InChI=1S/C16H16O6/c1-16(2,19)13(17)8-21-15-9-3-4-14(18)22-12(9)7-11-10(15)5-6-20-11/h3-7,13,17,19H,8H2,1-2H3/t13-/m0/s1

>  <standard_inchi_key>  (152) 
PEWFWDOPJISUOK-ZDUSSCGKSA-N

>  <name>  (152) 
133164-11-1

>  <iupac_name>  (152) 
4-[(2~{S})-2,3-dihydroxy-3-methyl-butoxy]furo[3,2-g]chromen-7-one

>  <annotation_level>  (152) 
5

>  <total_atom_count>  (152) 
38

>  <heavy_atom_count>  (152) 
22

>  <molecular_weight>  (152) 
304.3

>  <exact_molecular_weight>  (152) 
304.09469

>  <molecular_formula>  (152) 
C16H16O6

>  <alogp>  (152) 
2.05

>  <topological_polar_surface_area>  (152) 
93.04

>  <rotatable_bond_count>  (152) 
4

>  <hydrogen_bond_acceptors>  (152) 
6

>  <hydrogen_bond_donors>  (152) 
2

>  <hydrogen_bond_acceptors_lipinski>  (152) 
6

>  <hydrogen_bond_donors_lipinski>  (152) 
2

>  <lipinski_rule_of_five_violations>  (152) 
0

>  <aromatic_rings_count>  (152) 
3

>  <qed_drug_likeliness>  (152) 
0.72

>  <formal_charge>  (152) 
0

>  <fractioncsp3>  (152) 
0.31

>  <number_of_minimal_rings>  (152) 
3

>  <van_der_walls_volume>  (152) 
260.44

>  <contains_sugar>  (152) 
False

>  <contains_ring_sugars>  (152) 
False

>  <contains_linear_sugars>  (152) 
False

>  <murcko_framework>  (152) 
o1ccc2cc3C=CCOc3cc12

>  <np_likeness>  (152) 
1.56

>  <chemical_class>  (152) 
Coumarins and derivatives

>  <chemical_sub_class>  (152) 
Furanocoumarins

>  <chemical_super_class>  (152) 
Phenylpropanoids and polyketides

>  <direct_parent_classification>  (152) 
Psoralens

>  <np_classifier_pathway>  (152) 
Shikimates and Phenylpropanoids

>  <np_classifier_superclass>  (152) 
Coumarins

>  <np_classifier_class>  (152) 
Furocoumarins

>  <np_classifier_is_glycoside>  (152) 
False

>  <organisms>  (152) 
Arracacia tolucensis

>  <collections>  (152) 
BIOFACQUIM|CMAUP (cCollective molecular activities of useful plants)|ConMedNP|Super Natural II|TCMDB-Taiwan (Traditional Chinese Medicine database)|ZINC NP

>  <dois>  (152) 
10.1016/j.jep.2007.05.015

>  <synonyms>  (152) 
Oxypeucedanin hydrate|(-)-Prangol|4-(2S)-2|3-dihydroxy-3-methylbutoxyfuro3|2-gchromen-7-one|7H-Furo3|2-g1benzopyran-7-one| 4-(2S)-2|3-dihydroxy-3-methylbutoxy-|PEWFWDOPJISUOK-ZDUSSCGKSA-N|HY-N2254|AC-34774|MS-24391|CS-0019583|G60938|5-(2|3-Dihydroxy-3-methylbutoxy)-7H-furo3|2-gchromen-7-one|Dihydroxypeucedanin

>  <cas>  (152) 
nan

$$$$

     RDKit          2D

 16 18  0  0  0  0  0  0  0  0999 V2000
   -2.4944   -2.9471    0.0000 C   0  0  0  0  0  0  0  0  0  0  0  0
   -1.0627   -2.4998    0.0000 O   0  0  0  0  0  0  0  0  0  0  0  0
   -0.7341   -1.0362    0.0000 C   0  0  0  0  0  0  0  0  0  0  0  0
   -1.8373   -0.0199    0.0000 C   0  0  0  0  0  0  0  0  0  0  0  0
   -3.3308   -0.1597    0.0000 C   0  0  0  0  0  0  0  0  0  0  0  0
   -3.9253    1.2175    0.0000 C   0  0  0  0  0  0  0  0  0  0  0  0
   -2.7992    2.2084    0.0000 O   0  0  0  0  0  0  0  0  0  0  0  0
   -1.5088    1.4437    0.0000 C   0  0  0  0  0  0  0  0  0  0  0  0
   -0.0770    1.8909    0.0000 C   0  0  0  0  0  0  0  0  0  0  0  0
    1.0262    0.8746    0.0000 C   0  0  0  0  0  0  0  0  0  0  0  0
    0.6977   -0.5890    0.0000 C   0  0  0  0  0  0  0  0  0  0  0  0
    1.8009   -1.6053    0.0000 C   0  0  0  0  0  0  0  0  0  0  0  0
    3.2326   -1.1581    0.0000 C   0  0  0  0  0  0  0  0  0  0  0  0
    3.5612    0.3055    0.0000 C   0  0  0  0  0  0  0  0  0  0  0  0
    4.9930    0.7527    0.0000 O   0  0  0  0  0  0  0  0  0  0  0  0
    2.4580    1.3218    0.0000 O   0  0  0  0  0  0  0  0  0  0  0  0
  1  2  1  0
  2  3  1  0
  3  4  2  0
  4  5  1  0
  5  6  2  0
  6  7  1  0
  7  8  1  0
  8  9  2  0
  9 10  1  0
 10 11  2  0
 11 12  1  0
 12 13  2  0
 13 14  1  0
 14 15  2  0
 14 16  1  0
 11  3  1  0
  8  4  1  0
 16 10  1  0
M  END
>  <identifier>  (153) 
CNP0211069.0

>  <canonical_smiles>  (153) 
COC1=C2C=COC2=CC2=C1C=CC(=O)O2

>  <standard_inchi>  (153) 
InChI=1S/C12H8O4/c1-14-12-7-2-3-11(13)16-10(7)6-9-8(12)4-5-15-9/h2-6H,1H3

>  <standard_inchi_key>  (153) 
BGEBZHIAGXMEMV-UHFFFAOYSA-N

>  <name>  (153) 
Bergapten

>  <iupac_name>  (153) 
4-methoxyfuro[3,2-g]chromen-7-one

>  <annotation_level>  (153) 
5

>  <total_atom_count>  (153) 
24

>  <heavy_atom_count>  (153) 
16

>  <molecular_weight>  (153) 
216.19

>  <exact_molecular_weight>  (153) 
216.04226

>  <molecular_formula>  (153) 
C12H8O4

>  <alogp>  (153) 
2.55

>  <topological_polar_surface_area>  (153) 
52.58

>  <rotatable_bond_count>  (153) 
1

>  <hydrogen_bond_acceptors>  (153) 
4

>  <hydrogen_bond_donors>  (153) 
0

>  <hydrogen_bond_acceptors_lipinski>  (153) 
4

>  <hydrogen_bond_donors_lipinski>  (153) 
0

>  <lipinski_rule_of_five_violations>  (153) 
0

>  <aromatic_rings_count>  (153) 
3

>  <qed_drug_likeliness>  (153) 
0.59

>  <formal_charge>  (153) 
0

>  <fractioncsp3>  (153) 
0.08

>  <number_of_minimal_rings>  (153) 
3

>  <van_der_walls_volume>  (153) 
177.74

>  <contains_sugar>  (153) 
False

>  <contains_ring_sugars>  (153) 
False

>  <contains_linear_sugars>  (153) 
False

>  <murcko_framework>  (153) 
o1ccc2cc3C=CCOc3cc12

>  <np_likeness>  (153) 
1.04

>  <chemical_class>  (153) 
Coumarins and derivatives

>  <chemical_sub_class>  (153) 
Furanocoumarins

>  <chemical_super_class>  (153) 
Phenylpropanoids and polyketides

>  <direct_parent_classification>  (153) 
5-methoxypsoralens

>  <np_classifier_pathway>  (153) 
Shikimates and Phenylpropanoids

>  <np_classifier_superclass>  (153) 
Coumarins

>  <np_classifier_class>  (153) 
Furocoumarins

>  <np_classifier_is_glycoside>  (153) 
False

>  <organisms>  (153) 
Acanthus montanus|Actinomadura hibisca|Adlumia fungosa|Agathis macrophylla|Aliivibrio fischeri|Aloe castanea|Alpinia officinarum|Ammi majus|Ammi majus L.|Ammi sp.|Ammi spp.|Amomum reticulatum|Anastrepha suspensa|Anastrophyllum donnianum|Anethum graveolens|Angelica acutiloba|Angelica archangelica|Angelica archangelica L.|Angelica dahurica|Angelica dahurica var.dahurica|Angelica decursiva|Angelica furcijuga|Angelica furcijuga KITAGAWA|Angelica gigas|Angelica keiskei|Angelica officinalis|Angelica pubescens|Angelica sinensis|Angelica spp.|Angelica taiwaniana|Angelica talwaniana|Angelica ursina Maxim|Anthriscus sylvestris (L.) Hoffm.|Antidesma membranaceum|Apium graveolens|Apium graveolens L.|Aralia continentalis|Arnica foliosa|Arracacia tolucensis|Artemisia dracunculus|Ascodesmis sphaerospora|Aspergillus caespitosus|Astilbe koreana|Astragalus zahlbruckneri|Atalantia buxifolia|Atalantia ceylanica|Axinella cannabina|Azospirillum lipoferum|Baccharis flabellata|Bituminaria bituminosa|Boenninghausenia albiflora|Boronia muelleri|Brachyclados megalanthus|Burkholderia cepacia|Campylotropis hirtella (FRANCH.) SCHNDL|Caragana frutex|Caralluma russeliana|Casimiroa edulis|Cassia carnaval|Changium smyrnioides|Citrus aurantium|Citrus bergamia|Citrus maxima|Citrus medica|Citrus paradisi|Citrus wilsonii|Cladonia squamosula|Cnidium monieri|Cnidium monnieri|Colchicum macedonicum|Colutea arborescens|Conoideocrella tenuis|Coprosma acerosa|Coptis deltoidea|Cornicularia normoerica|Coussarea paniculata|Cranfillia vulcanica|Crocodylus niloticus|Cryptostegia grandiflora|Cudrania cochinchinensis|Cyanospira rippkae|Cyathus helenae|Cymathere triplicata|Cystoseira caespitosa|Daiswa dunniana|Dalbergia frutescens|Dalbergia monetaria|Daucus carota|Davallia solida|Dicliptera riparia|Dictamnus hispanicus|Dillenia papuana|Dorstenia asaroides|Dorstenia bahiensis|Dorstenia barnimiana|Dorstenia brasiliensis|Dorstenia bryonifolia|Dorstenia cayapiaa|Dorstenia contrajerva|Dorstenia drakena|Dorstenia excentria|Dorstenia heringerii|Dorstenia kameruniana|Dorstenia lindeniana|Dorstenia psilurus|Echium italicum|Eriostemon trachyphyllus|Erwinia rhapontici|Eryngium alpinum L.|Eryngium campestre L.|Espeletiopsis purpurascens|Eucalyptus exserta|Eunicea pinta|Euphorbia caducifolia|Fagara mayu|Fagara spp.|Feronia limonia|Ferula foetida|Ferulago capillaris|Ficus bengalensis|Ficus carica|Ficus carica L.|Ficus elastica|Ficus elastica Roxb.|Ficus eriobotryoides|Ficus palmata|Ficus sycomorus|Foeniculum vulgare|Garcinia parvifolia|Gasteria bicolor|Glehnia littoralis|Grindelia integrifolia|Grosvenoria rimbachii|Hansenia forbesii|Hansenia weberbaueriana|Helianthopsis bishopii|Helianthus californicus|Heracleum asperum|Heracleum dissectum|Heracleum granatense|Heracleum grandiflorum|Heracleum lehmannianum|Heracleum mantegazzianum Sommier & Levier|Heracleum maximum|Heracleum moellendorffii Hance|Heracleum moellendorffii Hance var.paucivitatum|Heracleum nepalense|Heracleum persicum (Fisch.) Desf.|Heracleum ponticum|Heracleum sosnowskyi Manden.|Heracleum sp.|Heracleum sphondylium|Heracleum sphondylium L. s.l. (H. sphondylium L. s.str., H. sphondylium subsp. alpinum (L.) Bonnier & Layens, H. sphondylium subsp. elegans (Crantz) Schuebl. & G. Martens and H. sphondylium  subsp. pyrenaicum (Lam.) Bonnier & Layens)|Heracleum spp.|Heracleum wallichii|Heracleum woroschiklowii|Hydrocotyle leucocephala|Hymenocallis speciosa|Hypericum papuanum|Hypholoma capnoides|Hypoxylon carneum|Hypoxylon sclerophaeum|Hypselodoris cantabrica|Ilex kaushue|Imperata cylindrica|Indian beech tree|Inga paterno|Inula thapsoides|Isis hippuris|Juglans regia|Kaunia arbuscularis|Kniphofia tuckii|Lactarius deliciosus var. deterrimus|Lactarius fuliginosus|Leonurus heterophyllus|Leptospermum liversidgei|Leptothyrsa sprucei|Levisticum officinale|Levisticum officinale W. D. J. Koch|Ligularia pleurocaulis|Ligusticum multivittatum|Ligusticum sp.|Ligusticum spp.|Limeum pterocarpum|Lonchocarpus salvadorensis|Lupinus formosus|Lycopersicon esculentum|Maclura cochinchinensis|Macrococculus pomiferus|Macrocystidia cucumis|Meeboldia yunnanensis|Metrodorea nigra|Nerita albicilla|Nierembergia hippomanica|Nigritella suaveolens|Nocardia brasiliensis|Notopterygium forbesii|Ophioglossum petiolatum|Oppopanax chironium|Orixa japonica|Osteospermum ecklonis|Ostericum grosseserratum|Oxandra xylopioides|Oyedaea verbesinoides|Palicourea alpina|Parmelia enteromorpha|Pastinaca sativa|Pastinaca sativa L.|Patrinia villosa|Persicaria thunbergii|Petroselinum crispum|Petroselinum crispum (Mill.) Fuss|Petroselinum sp.|Petroselinum spp.|Peucedanum baicalense|Peucedanum japonicum|Peucedanum praeruptorum|Peucedanum tauricum|Phegopteris subaurita|Phytolacca acinosa|Phytolacca esculenta|Pimpinella anisum|Pimpinella major (L.) Huds.|Pimpinella nigra Mill.|Pimpinella peregrina L.|Pimpinella saxifraga L.|Pimpinella spp.|Pinus albicaulis|Pinus formosana|Pinus krempfii|Piper ovatum|Platypodium elegans|Platytaenia dasycarpa|Plectranthus hereroensis|Pleurospermum angelicoides|Polypodium aureum|Poncirus trifoliata|Posoqueria latifolia|Prionosciadium thapsoides|Pyrola calliantha|Quercus sessilis|Rhodomyrtus tomentosa|Rosa transmorrisonensis|Ruta chalepensis L.|Ruta graveolens|Ruta graveolens L.|Salix sieboldiana|Salvia oxyodon|Salvia xalapensis|Sambucus ebulus|Saposhnikovia divaricata|Saposhnikovia divaricata Schischkin|Sauropus quadrangularis|Scabiosa comosa|Schenkia spicata|Scrophularia smithii|Semen zanthoxyli bungeani|Senecio barba-johannis|Seseli dichotomum|Seseli meirei|Seseli ponticum|Seseli sp.|Seseli spp.|Seseli tortuosum LBS.Eur.|Seseli webbii Cosson.|Silene gallica|Silene wallichiana|Sinodielsia yunnanensis|Smilax macrophylla|Solanum berthaultii|Solanum lycocarpum|Solanum lycopersicum|Solanum pseudocapsicum|Solanum torvum|Sphoeroides vermicularis|Spilanthes ocymifolia|Spiraea prunifolia|Spongia hispida|Streptomyces fulvoviridis|Tanacetum santolinoides|Taxus mairei|Tephrosia lupinifolia|Tephrosia villosa|Thalassia testudinum|Tilletia levis|Toddalia asiatica|Torilis japonica|Trifolium alexandrium|Trifolium pratense|Trixis inula|Tylophora flava|Ulosa spongia|Ursinia anthemoides|Vernonia echitifolia|Vicia sativa|Wunderlichia mirabilis|Zanthoxylum ailanthoides|Zanthoxylum echinocarpum|Zanthoxylum schinifolium|Zanthoxylum spinosum|Zilla spinosa

>  <collections>  (153) 
ANPDB|AfroDB|AnalytiCon Discovery NPs|Australian natural products|BIOFACQUIM|CMAUP (cCollective molecular activities of useful plants)|ChEBI NPs|ConMedNP|DrugBankNP|EMNPD|ETM (Ethiopian Traditional Medicine) DB|FooDB|GNPS (Global Natural Products Social Molecular Networking)|KNApSaCK|Latin America dataset|NANPDB (Natural Products from Northern African Sources)|NPACT|NPASS|NPCARE|NPEdia|NuBBEDB|Phenol-explorer|Phyto4Health|PubChem NPs|Super Natural II|TCMDB-Taiwan (Traditional Chinese Medicine database)|TCMID (Traditional Chinese Medicine Integrated Database)|TIPdb (database of Taiwan indigenous plants)|TPPT (Toxic Plants–PhytoToxins)|UNPD (Universal Natural Products Database)|VietHerb|p-ANAPL

>  <dois>  (153) 
10.1002/9780470744307.gat218|10.1002/biuz.19840140514|10.1002/food.19880321030|10.1016/0031-9422(95)00504-Z|10.1016/j.fitote.2018.04.019|10.1016/j.jep.2007.05.015|10.1155/2013/974256|10.1186/2191-2858-2-1

>  <synonyms>  (153) 
5-Methoxypsoralen|484-20-8|bergaptene|Heraclin|Majudin|4-Methoxy-7H-furo3|2-gchromen-7-one|BERGAPTAN|Psoraderm|5-Mop|O-Methylbergaptol|5-Methoxy-6|7-furanocoumarin|Geralen|Pentaderm|7H-Furo3|2-g1benzopyran-7-one| 4-methoxy-|5 methoxypsoralen|4-Methoxy-7H-furo(3|2-g)(1)benzopyran-7-one|4-Methoxyfuro3|2-gbenzopyran-7-one|NSC 95437|CCRIS 4348|HSDB 3466|EINECS 207-604-5|UNII-4FVK84C92X|NSC-95437|Bergaptene (DCF)|6-Hydroxy-4-methoxy-5-benzofuranacrylic acid| gamma-lactone|BRN 0019560|4FVK84C92X|DTXSID1025560|5-Methoxypsoralen with ultraviolet A therapy|MFCD00010272|4-methoxy-7H-furo3|2-g1benzopyran-7-one|CHEMBL24171|DTXCID305560|CHEBI:18293|5-19-06-00004 (Beilstein Handbook Reference)|5-METHOXYPSORALEN (IARC)|5-METHOXYPSORALEN (MART.)|CAS-484-20-8|SMR000112435|5 Methoxy Psoralen|4-METHOXYFURO(3|2-G)CHROMEN-7-ONE|SR-05000002173|Pentaderm (TN)|5-methoxyfurano3|2-gchromen-2-one|Spectrum_000794|BERGAPTEN MI|Spectrum2_000534|Spectrum3_000663|Spectrum4_001478|Spectrum5_000155|5-Methoxypsoralen| 99%|5-Methoxypsoralen;Heraclin|bmse000758|5-Methoxypsoralen (obsol.)|7H-Furo3| 4-methoxy-|5-Methoxypsoralen; Bergapten|Oprea1_562364|SCHEMBL50066|BSPBio_002325|KBioGR_002055|KBioSS_001274|SPECTRUM300546|MLS002207272|MLS002454380|Bergapten| analytical standard|DivK1c_000529|SPBio_000547|MEGxp0_000990|ACon0_000984|ACon1_001979|GTPL12431|HMS501K11|KBio1_000529|KBio2_001274|KBio2_003842|KBio2_006410|KBio3_001545|NINDS_000529|HMS1923G13|HMS2268M24|HMS3652F19|Pharmakon1600-00300546|5-METHOXYPSORALEN WHO-DD|BCP30865|HY-N0370|TNP00299|Tox21_202357|Tox21_303255|BDBM50067880|CCG-39946|NSC755877|s4239|STK333038|AKOS000276715|DB12216|DS-2970|SDCCGMLS-0066492.P001|IDI1_000529|NCGC00017357-01|NCGC00091582-01|NCGC00178705-01|NCGC00256998-01|NCGC00259906-01|AC-20189|AC-34208|NCI60_042121|SY051831|SBI-0051583.P002|DB-051552|B2840|NS00015832|SW220008-1|C01557|D07521|AB00052148_06|A827532|Q414779|Q-100536|BRD-K12968785-001-02-6|BRD-K12968785-001-11-7|InChI=1\/C12H8O4\/c1-14-12-7-2-3-11(13)16-10(7)6-9-8(12)4-5-15-9\/h2-6H|1H|Bergapten|Bergaptan|heraclin|majudin|FSL0405

>  <cas>  (153) 
484-20-8

$$$$

     RDKit          2D

 14 15  0  0  0  0  0  0  0  0999 V2000
   -3.4762    2.4998    0.0000 C   0  0  0  0  0  0  0  0  0  0  0  0
   -3.3976    1.0019    0.0000 O   0  0  0  0  0  0  0  0  0  0  0  0
   -2.0610    0.3210    0.0000 C   0  0  0  0  0  0  0  0  0  0  0  0
   -0.8030    1.1381    0.0000 C   0  0  0  0  0  0  0  0  0  0  0  0
    0.5335    0.4572    0.0000 C   0  0  0  0  0  0  0  0  0  0  0  0
    0.6121   -1.0408    0.0000 C   0  0  0  0  0  0  0  0  0  0  0  0
    1.9487   -1.7217    0.0000 C   0  0  0  0  0  0  0  0  0  0  0  0
    3.2066   -0.9046    0.0000 C   0  0  0  0  0  0  0  0  0  0  0  0
    3.1280    0.5933    0.0000 C   0  0  0  0  0  0  0  0  0  0  0  0
    4.3860    1.4103    0.0000 O   0  0  0  0  0  0  0  0  0  0  0  0
    1.7915    1.2742    0.0000 O   0  0  0  0  0  0  0  0  0  0  0  0
   -0.6458   -1.8578    0.0000 C   0  0  0  0  0  0  0  0  0  0  0  0
   -1.9824   -1.1769    0.0000 C   0  0  0  0  0  0  0  0  0  0  0  0
   -3.2403   -1.9940    0.0000 O   0  0  0  0  0  0  0  0  0  0  0  0
  1  2  1  0
  2  3  1  0
  3  4  2  0
  4  5  1  0
  5  6  2  0
  6  7  1  0
  7  8  2  0
  8  9  1  0
  9 10  2  0
  9 11  1  0
  6 12  1  0
 12 13  2  0
 13 14  1  0
 13  3  1  0
 11  5  1  0
M  END
>  <identifier>  (154) 
CNP0262443.0

>  <canonical_smiles>  (154) 
COC1=CC2=C(C=CC(=O)O2)C=C1O

>  <standard_inchi>  (154) 
InChI=1S/C10H8O4/c1-13-9-5-8-6(4-7(9)11)2-3-10(12)14-8/h2-5,11H,1H3

>  <standard_inchi_key>  (154) 
SYTYLPHCLSSCOJ-UHFFFAOYSA-N

>  <name>  (154) 
Isoscopoletin

>  <iupac_name>  (154) 
6-hydroxy-7-methoxy-chromen-2-one

>  <annotation_level>  (154) 
5

>  <total_atom_count>  (154) 
22

>  <heavy_atom_count>  (154) 
14

>  <molecular_weight>  (154) 
192.17

>  <exact_molecular_weight>  (154) 
192.04226

>  <molecular_formula>  (154) 
C10H8O4

>  <alogp>  (154) 
1.51

>  <topological_polar_surface_area>  (154) 
59.67

>  <rotatable_bond_count>  (154) 
1

>  <hydrogen_bond_acceptors>  (154) 
4

>  <hydrogen_bond_donors>  (154) 
1

>  <hydrogen_bond_acceptors_lipinski>  (154) 
4

>  <hydrogen_bond_donors_lipinski>  (154) 
1

>  <lipinski_rule_of_five_violations>  (154) 
0

>  <aromatic_rings_count>  (154) 
2

>  <qed_drug_likeliness>  (154) 
0.70

>  <formal_charge>  (154) 
0

>  <fractioncsp3>  (154) 
0.10

>  <number_of_minimal_rings>  (154) 
2

>  <van_der_walls_volume>  (154) 
161.02

>  <contains_sugar>  (154) 
False

>  <contains_ring_sugars>  (154) 
False

>  <contains_linear_sugars>  (154) 
False

>  <murcko_framework>  (154) 
O1c2ccccc2C=CC1

>  <np_likeness>  (154) 
1.04

>  <chemical_class>  (154) 
Coumarins and derivatives

>  <chemical_sub_class>  (154) 
Coumarins and derivatives

>  <chemical_super_class>  (154) 
Phenylpropanoids and polyketides

>  <direct_parent_classification>  (154) 
Coumarins and derivatives

>  <np_classifier_pathway>  (154) 
Shikimates and Phenylpropanoids

>  <np_classifier_superclass>  (154) 
Coumarins

>  <np_classifier_class>  (154) 
Simple coumarins

>  <np_classifier_is_glycoside>  (154) 
False

>  <organisms>  (154) 
Achillea biebersteinii|Agathosma betulina|Agathosma recurvifolia|Aglaia lawii|Alphitonia macrocarpa|Althaea officinalis|Amaioua guianensis|Ammi majus|Aniba duckei|Aplophyllum telephioides|Arisarum vulgare|Armillaria tabescens|Arnica sachalinensis|Arracacia tolucensis|Artemisia scoparia|Baccharis santelicis|Berchemia floribunda|Betula maximowicziana|Bugula neritina|Buxus microphylla sieb. et zucc. var. sinica rehd. et wils.|Buxus microphylla var. sinica|Buxus microphylla var.sinica|Calanthe arisanensis|Canarium album|Centaurea spruneri|Channa argus|Chloranthus japonicus|Choisya arizonica|Chrysosplenium oppositifolium|Citrus medica|Citrus sinensis|Clematis angustifolia|Conyza bonariensis|Diaporthe amygdali|Dictamnus gymnostylis|Dysoxylum binectariferum|Epimedium sagittatum|Eriogonum nudum|Erythrina eriotriocha|Erythrina sandwicensis|Eucalyptus sieberiana|Euphorbia balsamifera|Euphorbia hirta|Euphorbia officinarum|Euphorbia quinquecostata|Fagara zanthoxyloides|Fraxinus chinensis|Fraxinus chinensis subsp. rhynchophylla|Fraxinus stylosa|Fraxinus szaboana|Garcinia volkensii|Glossocalyx brevipes|Glycyrrhiza pallidiflora|Helianthus divaricatus|Hepialus hecta|Humulus japonicus|Hyacinthoides hispanica|Hygrophila polysperma|Hyphear tanakae|Ilex hainanensis|Incarvillea emodi|Indigofera linnaei|Isodon gesneroides|Ligularia subspicata|Lobelia chinensis|Lycium barbarum|Lycium chinense|Mallotus resinosus|Mcneillia graminifolia|Melia azedarach|Melicope sarcococca|Morinda citrifolia|Morus rubra|Mucuna sloanei|Mycale laxissima|Myelochroa rhytidodes|Nama johnstonii|Nephelium lappaceum|Nervilia fordii|Notholaena peninsularis|Ochrocarpos odoratus|Oligonychus bessardi|Papularia sphaerosperma|Pinus sitchensis|Pittosporum viridiflorum|Plexaurella grisea|Plinia cauliflora|Polypodiodes formosana|Pseudocedrela kotschyi|Pseudotaxus chienii|Pteris australis|Punctelia microsticta|Quercus acuta|Quercus gilva|Ranunculus sceleratus|Reaumuria mucronata|Reaumuria vermiculata|Resupinatus leightonii|Rhodopila globiformis|Roldana barba-johannis|Rothmannia urcelliformis|Rubus thibetanus|Santolina rosmarinifolia|Saussurea involucrata|Senecio coahuilensis|Senecio othonniformis|Serratula xeranthemoides|Sideritis nutans|Sinularia manaarensis|Siphonostegia chinensis|Sophora davidii|Sphaeria biglobosa|Sphaeria doliolum|Stenomesson miniatum|Streptomyces blastmyceticus|Streptomyces griseus|Streptomyces orinoci|Swertia decora|Syringa vulgaris|Theonella cupola|Tritomaria quinquedentata|Uncaria guianensis|Venidium hirsutum|Veratrum eschscholtzii|Vibrio parahaemolyticus|Vicoa vestita|Viola mandshurica|Viola philippica|Virola sebifera|Withania frutescens|Xerula melanotricha|Xylopia brasiliensis|Zanthoxylum integrifoliolum|Zanthoxylum nitidum

>  <collections>  (154) 
ANPDB|Australian natural products|BIOFACQUIM|CMAUP (cCollective molecular activities of useful plants)|ChemSpider NPs|ConMedNP|ETM (Ethiopian Traditional Medicine) DB|FooDB|GNPS (Global Natural Products Social Molecular Networking)|HIM (Herbal Ingredients in-vivo Metabolism database)|KNApSaCK|Latin America dataset|NANPDB (Natural Products from Northern African Sources)|NPASS|NPCARE|NuBBEDB|Phyto4Health|SANCDB|Specs Natural Products|StreptomeDB|Super Natural II|TCMDB-Taiwan (Traditional Chinese Medicine database)|TCMID (Traditional Chinese Medicine Integrated Database)|TIPdb (database of Taiwan indigenous plants)|UNPD (Universal Natural Products Database)|VietHerb|ZINC NP

>  <dois>  (154) 
10.1016/S0031-9422(00)80417-3|10.1016/j.bmc.2017.12.011|10.1016/j.bse.2020.104080|10.1016/j.fitote.2012.06.007|10.1016/j.jep.2007.05.015|10.1021/jf801103p|10.1021/np0202475|10.1021/np040129c|10.1021/np0605539|10.1021/np070186g|10.1128/aem.46.2.468-474.1983|10.1186/2191-2858-2-1|10.3724/sp.j.1009.2012.00040

>  <synonyms>  (154) 
776-86-3|6-Hydroxy-7-methoxycoumarin|6-hydroxy-7-methoxy-2H-chromen-2-one|7-Methoxyesculetin|2H-1-Benzopyran-2-one| 6-hydroxy-7-methoxy-|CHEMBL390320|CHEBI:81484|Isoscopoletine|6-Hydroxy-7-methoxy-2-benzopyrone|EINECS 212-282-4|Esculetin| 7-methyl ether|SCHEMBL2790887|DTXSID40228266|6-Hydroxy-7-Methoxycoumarin |(S)|HY-N1365|BDBM50206008|MFCD00016976|s9255|AKOS016009381|CCG-208436|NCGC00163577-01|AC-35017|BS-48652|1ST164487|DB-333568|6-Hydroxy-7-methoxy-2H-1-benzopyran-2-one|CS-0016774|NS00037942|C18079|A865173|SR-05000002254|Q27155412|isoscopoletin

>  <cas>  (154) 
776-86-3

$$$$

     RDKit          2D

 14 15  0  0  0  0  0  0  0  0999 V2000
   -3.9452    1.9906    0.0000 C   0  0  0  0  0  0  0  0  0  0  0  0
   -3.5792    0.5359    0.0000 O   0  0  0  0  0  0  0  0  0  0  0  0
   -2.1365    0.1255    0.0000 C   0  0  0  0  0  0  0  0  0  0  0  0
   -1.0597    1.1697    0.0000 C   0  0  0  0  0  0  0  0  0  0  0  0
    0.3831    0.7592    0.0000 C   0  0  0  0  0  0  0  0  0  0  0  0
    0.7490   -0.6954    0.0000 C   0  0  0  0  0  0  0  0  0  0  0  0
   -0.3278   -1.7397    0.0000 C   0  0  0  0  0  0  0  0  0  0  0  0
   -1.7706   -1.3292    0.0000 C   0  0  0  0  0  0  0  0  0  0  0  0
   -2.8474   -2.3735    0.0000 O   0  0  0  0  0  0  0  0  0  0  0  0
    2.1918   -1.1059    0.0000 O   0  0  0  0  0  0  0  0  0  0  0  0
    3.2686   -0.0617    0.0000 C   0  0  0  0  0  0  0  0  0  0  0  0
    4.7113   -0.4721    0.0000 O   0  0  0  0  0  0  0  0  0  0  0  0
    2.9027    1.3930    0.0000 C   0  0  0  0  0  0  0  0  0  0  0  0
    1.4599    1.8035    0.0000 C   0  0  0  0  0  0  0  0  0  0  0  0
  1  2  1  0
  2  3  1  0
  3  4  2  0
  4  5  1  0
  5  6  2  0
  6  7  1  0
  7  8  2  0
  8  9  1  0
  6 10  1  0
 10 11  1  0
 11 12  2  0
 11 13  1  0
 13 14  2  0
  8  3  1  0
 14  5  1  0
M  END
>  <identifier>  (155) 
CNP0184442.0

>  <canonical_smiles>  (155) 
COC1=CC2=C(C=C1O)OC(=O)C=C2

>  <standard_inchi>  (155) 
InChI=1S/C10H8O4/c1-13-9-4-6-2-3-10(12)14-8(6)5-7(9)11/h2-5,11H,1H3

>  <standard_inchi_key>  (155) 
RODXRVNMMDRFIK-UHFFFAOYSA-N

>  <name>  (155) 
scopoletin

>  <iupac_name>  (155) 
7-hydroxy-6-methoxy-chromen-2-one

>  <annotation_level>  (155) 
5

>  <total_atom_count>  (155) 
22

>  <heavy_atom_count>  (155) 
14

>  <molecular_weight>  (155) 
192.17

>  <exact_molecular_weight>  (155) 
192.04226

>  <molecular_formula>  (155) 
C10H8O4

>  <alogp>  (155) 
1.51

>  <topological_polar_surface_area>  (155) 
59.67

>  <rotatable_bond_count>  (155) 
1

>  <hydrogen_bond_acceptors>  (155) 
4

>  <hydrogen_bond_donors>  (155) 
1

>  <hydrogen_bond_acceptors_lipinski>  (155) 
4

>  <hydrogen_bond_donors_lipinski>  (155) 
1

>  <lipinski_rule_of_five_violations>  (155) 
0

>  <aromatic_rings_count>  (155) 
2

>  <qed_drug_likeliness>  (155) 
0.70

>  <formal_charge>  (155) 
0

>  <fractioncsp3>  (155) 
0.10

>  <number_of_minimal_rings>  (155) 
2

>  <van_der_walls_volume>  (155) 
160.82

>  <contains_sugar>  (155) 
False

>  <contains_ring_sugars>  (155) 
False

>  <contains_linear_sugars>  (155) 
False

>  <murcko_framework>  (155) 
O1c2ccccc2C=CC1

>  <np_likeness>  (155) 
1.08

>  <chemical_class>  (155) 
Coumarins and derivatives

>  <chemical_sub_class>  (155) 
Hydroxycoumarins

>  <chemical_super_class>  (155) 
Phenylpropanoids and polyketides

>  <direct_parent_classification>  (155) 
7-hydroxycoumarins

>  <np_classifier_pathway>  (155) 
Shikimates and Phenylpropanoids

>  <np_classifier_superclass>  (155) 
Coumarins

>  <np_classifier_class>  (155) 
Simple coumarins

>  <np_classifier_is_glycoside>  (155) 
False

>  <organisms>  (155) 
Abelia chinensis|Abuta velutina|Acacia cambagei|Acacia ehrenbergiana|Acacia neovernicosa|Acacia salicina|Acanthaster planci|Acer maximowiczianum|Acer nikoense|Achillea biebersteinii|Achillea holosericea|Achillea lycaonica|Achillea wilhelmsii|Achyrocline bogotensis (HBK.) DC.|Acinetobacter baumannii|Acinetobacter calcoaceticus|Aconitum gigas|Aconitum zuccarini|Acronychia laurifolia|Adansonia digitata|Adenia fruticosa|Adenocalymma alliaceum|Adonis amurensis|Aeromonas hydrophila|Agapanthus inapertus|Agave deserti|Agave ghiesbreghtii|Ageratina saltillensis|Ageratum corymbosum|Aglaia edulis|Aglaia perviridis|Aglaia pyramidata|Ailanthus altissima|Ajania fruticulosa|Aka coralliphagum|Albizia Julibrissin|Albizia gummifera|Alchornea cordifolia|Alexandrium excavatum|Allamanda schottii|Alpinia officinarum|Althaea officinalis|Alyxia lucida|Amanita caesarea|Amathia alternata|Amomum daniellii|Amomum reticulatum|Anagyris foetida|Ancistrocladus korupensis|Andrographis echioides|Angelica acutiloba|Angelica dahurica|Angelica decursiva|Angelica pubescens|Angelica pubescens f.biserrata|Angelica sinensis|Aniba duckei|Anisodus luridus|Annona glabra|Antennaria geyeri|Aplophyllum alberti-regelii|Aplysia dactylomela|Apocynum venetum|Arabidopsis thaliana|Arachniodes mutica|Aralia continentalis|Aralia fargesii|Aralidium pinnatifidum|Arenaria kansuensis|Armillaria tabescens|Arnica viscosa|Arracacia tolucensis|Artabotrys zeylanicus|Artemisia afra|Artemisia annua|Artemisia annua L.|Artemisia anomala|Artemisia apiacea|Artemisia argyi|Artemisia capillaries|Artemisia capillaris|Artemisia caucasica|Artemisia compacta|Artemisia gilvescens|Artemisia ireyniana|Artemisia iskenderiana|Artemisia iwayomogi|Artemisia japonica|Artemisia mesatlantica|Artemisia minor|Artemisia montana|Artemisia princeps|Artemisia schimperi|Artemisia scoparia|Asclepias subulata|Ascodesmis sphaerospora|Asimina parviflora|Aspergillus chevalieri|Aspergillus phoenicis|Aspidixia articulata|Aster alpinus|Aster ptarmicoides|Asterias nipon|Astragalus amarus|Astragalus brachycarpus|Astragalus caspicus|Astragalus curvicarpus|Atalantia wightii|Athanasia dregeana|Atraphaxis spinosa|Atropa belladonna|Atylosia trinervia|Avena sativa|Baccharis articulata|Baccharis magellanica|Baccharis neglecta|Baccharis solieri|Bacillus amyloliquefaciens|Bacillus subtilis|Backhousia angustifolia|Balanophora japonica|Baptisia arachnifera|Baptisia bracteata|Baptisia calycosa|Baptisia cinerea|Baptisia lanceolata|Baptisia nuttalliana|Baptisia perfoliata|Baptisia simplicifolia|Baptisia tinctoria|Baptisia versicolor|Berberis crataegina|Bersama swinnyi|Betula neoalaskana|Blainvillea latifolia|Blighia welwitschii|Blumea obliqua|Boletinus paluster|Boronella koniambiensis|Botryosphaeria berengeriana|Brassica oleracea var. sabauda|Brunfelsia grandiflora D.DON|Bryophyllum calycinum|Bupleurum salicifolium|Bursera simaruba|Bussea sakalava|Buxus bodinieri|Calcarisporium thermophilum|Calceolaria thyrsiflora|Calea harleyi|Calophyllum thwaitesii|Caltha palustris|Calvatia lilacina|Canarium album|Caragana frutex|Caralluma russeliana|Carpopeltis flabellata|Casimiroa edulis|Castanopsis eyrei|Catunaregam spinosa|Ceanothus sanguineus|Celastrus monospermus|Centaurea maculosa|Centaurea meyeriana|Centaurea pseudoscabiosa subsp.pseudoscabiosa Boiss.et aBuhse|Centaurea spruneri|Centrosema haitense|Ceratocystis fimbriata|Ceratocystis ips|Ceratozamia kuesteriana|Chaerophyllum hirsutum|Chamaecyparis pisifera|Cheilanthes chusana|Cheilanthes marantae|Cheimonophyllum candidissimum|Chenopodium murale|Chiloscyphus rivularis|Chondrodendron tomentosum|Chondrosia reniformis|Chorda filum|Choriaster granulatus|Chrysanthemum leucanthemum|Cirsium canum|Cirsium japonicum|Cirsium setidens|Citropsis articulata|Citrullus lanatus|Citrus maxima|Citrus medica|Citrus medica var. etrog|Citrus sinensis|Citrus sinensis cv.Valencia|Clausena anisata|Cleidion spiciflorum|Cleidion spiciflorum (Burm. f.) Merr.|Clematis terniflora var. mandshurica|Cleome brachycarpa|Clerodendrum bungei|Clitocybe diatreta|Cnidium officinale|Coespeletia moritziana|Collariella gracilis|Commiphora africana|Conium maculatum|Conocarpus erectus|Conoideocrella luteorostrata|Conus mus|Conus tessulatus|Convolvulus arvensis|Convolvulus scammonia|Conyza bonariensis|Coprinopsis cinerea|Coprosma propinqua|Coprosma robusta|Coprosma rotundifolia|Coprosma tenuicaulis|Coptis trifolia subsp. groenlandica|Cordia leucocephala|Coronilla varia|Cortex mori radicis praeparata|Cortinarius vinosipes|Corydalis gigantea|Corydalis persica|Corynanthe pachyceras|Cota tinctoria|Coussarea macrophylla|Crataegus pontica|Crella incrustans|Crepidotus fulvotomentosus|Crotalaria mysorensis|Crotalaria spectabilis|Croton draco Schltdl.& Cham.|Croton stellatopilosus|Cruciata taurica|Cryptocarya infectoria|Cunninghamia lanceolata var. konishii|Cupania cinerea|Curcuma mangga|Cydia flexiloqua|Cymbopogon schoenanthus|Cynoglossum amabile|Cytisus angulatus|Cytisus austriacus|Daedalea juniperina|Dalbergia monetaria|Datura stramonium|Delphinium hybridum|Dendrobium densiflorum|Dendrobium densiflorum Lindl.ex.Wall.|Dendrobium plicatile|Dendrodoris tuberculosa|Dendronephthya griffini|Dermocybe cardinalis|Dermolepida albohirtum|Diaporthe amygdali|Dichotomophthora lutea|Dictamnus angustifolius|Dictamnus dasycarpus|Dictamnus gymnostylis|Dioscorea gracillima|Dioscorea spongiosa|Dioscorea villosa|Diospyros assimilis|Diospyros kaki|Diospyros maritima|Diphasiastrum tristachyum|Dipsacus fullonum|Distaplia stylifera|Dodonaea angustifolia|Dolabella californica|Dracaena cinnabari|Durio oxleyanus|Dysidea villosa|Dysosma delavayi|Earias insulana|Echinaster echinophorus|Echinocereus cinerascens|Echinochloa esculenta|Echinocystis lobata|Echinopepon bigelovii|Echinosophora koreensis|Echinothrix diadema|Echium rubrum|Eichhornia crassipes|Elephantopus tomentosus|Elsholtzia cristata|Embelia parviflora|Embelia schimperi|Endospermum diadenum|Entada africana|Entada polystachya|Enterococcus faecium|Ephedra sinica|Epilobium hirsutum|Eria anomala|Eriostemon crowei|Eriostemon tomentellus|Erycibe obtusifolia|Erycibe schmidtii|Erysimum leptophyllum|Erythrina eriotriocha|Erythrina melanacantha|Erythroxylum passerinum|Esenbeckia hartmanii|Esenbeckia leiocarpa|Espeletiopsis purpurascens|Eucalyptus decorticans|Eucalyptus piperita|Eucalyptus radiata|Eupatorium lindleyanum|Euphorbia hirta|Euphorbia humifusa|Euphorbia micractina|Euphorbia nematocypha|Euphorbia pubescens|Euphorbia resinifera|Euphorbia royleana|Eurycoma longifolia|Euryops algoensis|Euryops rupestris|Eutrochium purpureum|Exobasidium vaccinii|Fabiana imbricata|Fagara chalybea|Falcaria vulgaris|Faramea salicifolia|Felicia amelloides|Flavoparmelia caperata|Flemingia rhodocarpa|Flindersia bennettiana|Flueggea microcarpa|Forsythia x intermedia|Francoeuria undulata|Fraxinus chinensis|Fraxinus chinensis subsp. rhynchophylla|Fraxinus ornus|Fraxinus stylosa|Fraxinus szaboana|Fructus mori|Fuligo candida|Fumaria indica|Galeopsis ladanum|Galeopsis pubescens|Galium album|Garcinia volkensii|Gardenia aubryi|Gardenia jasminoides|Geigeria schinzii|Gelsemium sempervirens|Genista anglica|Gentiana strictiflora|Geotrichum candidum|Gerbera asplenifolia|Gibbaria ilicifolia|Glechoma longituba|Glehnia littoralis|Glinus oppositifolius|Glycosmis pseudoracemosa|Glycyrrhiza uralensis|Gomortega keule|Gomphostemma crinitum|Goniothalamus undulatus|Gonospermum elegans|Gonospermum fruticosum|Gonospermum gomerae|Grewia villosa|Grosvenoria rimbachii|Guarea rhopalocarpa|Guarea rhophalocarpa|Gymnocalycium schickendantzii|Haemanthus toxicarius|Haliclona tubifera|Haliclona valliculata|Haliclona vansoesti|Hansenia forbesii|Hansenia weberbaueriana|Haplopappus obtusifolium|Haplophyllum obtusifolium|Haplophyllum patavinum|Hedyotis capitellata|Helenium quadridentatum|Helianthus californicus|Helichrysum angustifolium|Helichrysum sutherlandii|Helichrysum tenuifolium|Helminthosporium victoriae|Hendersonula toruloidea|Heracleum granatense|Heracleum pyrenaicum|Herba artemisiae scopariae|Herba cichorii|Herba patriniae|Hesperocyparis lusitanica|Heterosigma akashiwo|Hexaplex trunculus|Hibiscus syriacus|Hibiscus taiwanensis|Holarrhena febrifuga|Hopea brevipetiolaris|Hortonia floribunda|Hosta sieboldiana|Houttuynia cordata|Humulus japonicus|Hygrophorus eburneus|Hymenoxys microcephala|Hypecoum imberbe|Hypericum carinatum|Hypericum styphelioides|Hyphear tanakae|Iberis sempervirens|Ilex canariensis|Ilex integra|Ilex pubescens var. glaber|Ilex pubescens var.glaber|Ilex taubertiana|Impatiens balsamina|Impatiens siculifer|Imperata cylindrica|Inula britannica|Inula grantioides|Inula helenium|Inula helenium L.|Inula salsoloides|Io fluvialis|Ipomoea carnea|Ipomoea orizabensis|Iris ensata|Isodon gesneroides|Ixora coccinea|Jacobaea cannabifolia|Jasione montana|Juniperus ashei|Juniperus horizontalis|Juniperus rigida|Jurinea maxima|Kalanchoe blossfeldiana|Keiferia lycopersicella|Khaya anthotheca|Khaya ivorensis|Khaya senegalensis|Khaya senegalensis L.|Kloeckera brevis|Lachnanthes tinctoria|Lactarius fuliginosus|Lactarius subpiperatus|Lactarius vellereus|Laetia corymbulosa|Lagerstroemia flos-reginae|Lamellodysidea chlorea|Lantana involucrata|Lathyrus tingitanus|Latrunculia magnifica|Lemaireocereus longispinus|Lens culinaris|Leontice kiangnanensis|Lepisanthes tetraphylla|Leucopaxillus gentianeus|Libanothamnus occultus|Ligularia speciosa|Ligusticum sinense|Limnocitrus littoralis|Litsea elliptica|Litsea pungens|Litsea verticillata|Lophiostoma vaginatispora|Lophocereus marginatus|Lophozia floerkei|Lupinus pilosus|Lycium barbarum|Lycium barnarum|Lycium chinense|Lycium chinense var. potaninii|Lycium chinense var.potaninii|Lycogala epidendrum|Lycopodium sieboldii|Lyngbya semiplena|Lythrum salicaria|Macaranga barteri|Macaranga triloba|Machilus odoratissima|Machilus thunbergii|Machilus zuihoensis|Macroptilium atropurpureum|Macrozamia riedlei|Maesa chisia|Magnolia fraseri|Magnolia kachirachirai|Maharanga bicolor|Mallotus resinosus|Mammea africana|Mandragora autumnalis|Manihot esculenta|Manoao colensoi|Marasmiellus ramealis|Mariscus psilostachys|Matricaria aurea|Maytenus blepharodes|Maytenus retusa|Medium grandiflorum|Meeboldia yunnanensis|Melaleuca decora|Melilotus alba|Mentha arvensis|Mentha canadensis|Metacalypogeia alternifolia|Metrodorea nigra|Micromelum integerrimum|Microtoena prainiana|Millettia ichthyochtona|Millettia rubiginosa|Mimosa diplotricha|Mimosa pudica|Mitragyna africanus WILLD.|Modiolus auriculatus|Monanchora unguiculata|Monilinia fructicola|Monodora brevipes|Monomeria barbata|Monsonia senegalensis|Morella rubra|Morinda citrifolia|Morinda coreia|Morus alba|Morus cathayana|Morus mongolica|Mosla japonica|Muriceopsis flavida|Murraya paniculata|Murraya paniculata var. exotica|Mycale rotalis|Mycetia nutans|Myriastra clavosa|Myriophyllum verticillatum|Myxococcus stipitatus|Naja kaouthia|Naja naja|Nama johnstonii|Nemuaron humboldtii|Neopetrosia exigua|Nerium odorum|Nervilia purpurea|Nocardia pseudobrasiliensis|Notechis scutatus|Nothospondias staudtii|Notonia grandiflora|Nuphar lutea|Ocimum kilimandscharicum|Oenanthe fistulosa|Onobrychis kemularia|Onobrychis kemulariae|Onopordum acanthium|Ophiopholis aculeata|Ophiorrhiza liukiuensis|Ophryosporus charua|Opuntia vulgaris|Osteospermum hyoseroides|Ostericum grosseserratum|Pachycereus pringlei|Pancratium longiflorum|Pancratium sickenbergeri|Papaver radicatum|Paramignya griffithii|Parmelia caraccensis|Parmelia pokornyi|Parmelia zollingeri|Passiflora morifolia|Patrinia scabiosaefolia|Patrinia scabiosifolia|Pedilanthus tithymaloides|Penicillium alutaceum|Penicillium kapuscinskii|Periploca sepium|Petasites georgicus|Peucedanum officinale|Peucedanum oroselinum|Peucedanum praeruptorum DUNN.|Phaseolus vulgaris|Phebalium clavatum|Phellodendron amurense|Phellodendron amurense var. wilsonii|Phellodendron japonicum|Phellodendron japonicum MAXIM|Phlomoides medicinalis|Phoenix loureiroi|Phyllanthus polyphyllus var.siamensis|Physochlaina physaloides|Picea mariana|Picris evae|Pilocarpus grandiflorus|Pimpinella anisum|Pinus glauca|Pinus massoniana|Piper hancei|Piper regnellii|Piptanthus concolor|Plagiomnium undulatum|Plakortis simplex|Planchonia grandis|Plathymenia reticulata|Platytaenia dasycarpa|Plectosphaerella cucumerina|Plectranthus caninus|Plectranthus hereroensis|Plectranthus nummularius|Pleione bulbocodioides|Pleuronectes cynoglossus|Plocamium violaceum|Podocarpus henckelii|Podocarpus montanus|Podocarpus philippinensis|Podosphaera fuliginea|Polygonum aviculare|Polygonum mite|Polypodiodes formosana|Polypodium aureum|Polytolypa hystricis|Polytrichum commune|Poncirus trifoliata|Prangos bucharica|Prosopis kuntzei|Prunus domestica|Prunus serotina|Pseudonocardia autotrophica|Pseuduvaria indochinensis|Psiadia anchusifolia|Psychotria correae|Pteridium esculentum|Pteris altissima|Pteris argentea|Pteris inaequalis|Pteris setuloso-costulata|Pteris spinulosa|Pterocaulon virgatum|Pterospermum lanceaefolium|Pterospermum lanceifolium|Quercus robur|Quercus serra|Rabdosia loxothyrsa|Radix rubiae|Ramonda myconi|Rauvolfia salicifolia|Relhania acerosa|Renealmia exaltata|Reseda luteola|Resupinatus leightonii|Rhinella marina|Rhizoplaca baranowii|Rhododendron dauricum|Rhododendron ferrugineum|Rhododendron luteum|Rhododendron micranthum|Rhododendron mucronulatum|Rhodoglossum japonicum|Rhodopila globiformis|Roccellaria mollis|Roemeria carica|Rubia tinctorum|Rubia wallichiana|Rubia wallichiana DECNE|Rubus adenotrichos|Rubus glaucus|Rubus occidentalis|Rubus phoenicolasius|Russula sardonia|Russula vesca|Salmonella enterica subsp. enterica serovar bovismorbificans|Salmonella enterica subsp. enterica serovar gallinarum|Salsola micranthera|Salta triflora|Salvia aerea|Salvia deserta|Salvia lasiantha|Salvia parryi|Salvia polystachya|Santolina oblongifolia|Sapindus emarginatus|Saposhnikovia divaricata|Saposhnikovia divaricata Schischkin|Sarcandra glabra|Sargassum fusiforme|Sargassum macrocarpum|Sassafras officinalis|Saussurea cordifolia|Saussurea involucrata|Saussurea laniceps|Saussurea lappa|Saussurea pulchella|Saussurea superba|Scaphopetalum thonneri|Schefflera divaricata|Schisandra arisanensis|Schleichera oleosa|Schrebera swietenoides|Schumanniophyton magnificum|Sclerodoris tanya|Scopolia carniolica|Scopolia japonica|Scopolia parviflora|Scopolia sinensis|Scorzonera divaricata|Scorzonera pseudodivaricata|Scutellaria galericulata|Securigera elegans|Securigera varia|Sedum cepaea|Sedum lineare|Sedum purpureum|Selaginella pallescens|Senecio dolichodoryius|Senecio gilliesi|Senecio panduriformis|Senecio polyodon|Senecio trichopterygius|Senna multijuga|Senna sophera|Serratula wolffii|Setosphaeria turcica|Shigella dysenteriae|Sida acuta|Sideritis perfoliata|Sideritis raeseri|Simarouba glauca|Sinodielsia yunnanensis|Sinularia inelegans|Siphonaria capensis|Sitotroga cerealella|Skimmia japonica|Solanaceae|Solanum aculeatum|Solanum indicum|Solanum nigrum|Solanum spirale|Sonchus oleraceus|Sonchus pinnatifidus|Sophora davidii|Sophora flavescens|Sophora japonica|Sophora leachiana|Sophora mollis|Spiraea prunifolia|Spondias dulcis|Stauranthus perforatus|Stenocereus thurberi|Stomozoa murrayi|Streptomyces chryseus|Streptomyces flaveus|Streptomyces fulvoviridis|Streptomyces globisporus|Streptomyces griseocarneus|Streptomyces griseus|Streptomyces incarnatus|Streptomyces olivaceus|Streptomyces rimosus|Streptomyces sp. G278|Streptomyces sulfonofaciens|Streptomyces tateyamensis|Streptomyces xanthochromogenes|Streptopelia orientalis|Strophanthus thollonii|Strychnos spinosa|Syringa reticulata subsp. amurensis|Syzygium polycephaloides|Takifugu rubripes|Talipariti tiliaceum|Tanacetopsis mucronata|Tanacetum nubigenum|Taraxacum mongolicum|Tecoma heptaphylla|Tedania anhelans|Tenebrio molitor|Tephrosia bidwilli|Tetradium glabrifolium|Tetragonotheca repanda|Teucrium pernyi|Thalictrum longistylum|Theonella conica|Thermus thermophilus|Thielavia terricola|Thiocystis gelatinosa|Tithonia rotundifolia|Toona sinensis|Torricellia tiliifolia|Tricalysia dubia|Tricholoma batschii|Tricholoma columbetta|Trichomanes reniforme|Trifolium montanum|Trigonella foenum|Trigonella foenum-graecum|Trigonostemon reidioides|Turpinia ternata|Ulmus parvifolia|Uncaria kawakamii|Uncaria sinensis|Urbanodendron verrucosum|Urceolaria bryophila|Ursinia anthemoides|Urtica dioica|Vatica pauciflora|Vellozia nanuzae|Venus casina|Vernonia chinensis|Vernonia fagifolia|Vernonia lilacina|Viburnum urceolatum|Vicia sativa|Vicia truncatula|Vigna radiata|Viguiera oblongifolia|Viola mandshurica|Viola philippica|Virola sebifera|Virola venosa|Viscum coloratum|Vitex limonifolia|Vitex negundo|Wendlandia tinctoria|Withania frutescens|Xanthium strumarium|Xanthoparmelia pokornyi|Xanthoria parietina|Xenia viridis|Xerula melanotricha|Xyris pterygoblephara|Zanthoxylum avicennae|Zanthoxylum chiloperone|Zanthoxylum integrifoliolum|Zanthoxylum rhoifolium|Zanthoxylum simulans|Zanthoxylum spinosum|Ziziphus jujuba|[polyangium] brachysporum|solanum violaceum

>  <collections>  (155) 
ANPDB|AfroCancer|AfroDB|AnalytiCon Discovery NPs|Australian natural products|BIOFACQUIM|CMAUP (cCollective molecular activities of useful plants)|ChEBI NPs|ChemSpider NPs|EMNPD|ETM (Ethiopian Traditional Medicine) DB|FooDB|GNPS (Global Natural Products Social Molecular Networking)|HIM (Herbal Ingredients in-vivo Metabolism database)|InPACdb|InflamNat|KNApSaCK|Latin America dataset|Mitishamba database|NANPDB (Natural Products from Northern African Sources)|NPACT|NPASS|NPCARE|NPEdia|NuBBEDB|Phenol-explorer|Phyto4Health|PubChem NPs|ReSpect|SANCDB|Specs Natural Products|StreptomeDB|Super Natural II|TCMDB-Taiwan (Traditional Chinese Medicine database)|TCMID (Traditional Chinese Medicine Integrated Database)|TIPdb (database of Taiwan indigenous plants)|UNPD (Universal Natural Products Database)|VietHerb|Watermelon|p-ANAPL

>  <dois>  (155) 
10.1002/jsfa.2740101006|10.1016/0031-9422(83)83031-3|10.1016/0031-9422(95)00504-Z|10.1016/S0031-9422(00)80417-3|10.1016/j.bmc.2017.12.011|10.1016/j.bmcl.2010.10.058|10.1016/j.bmcl.2013.02.060|10.1016/j.jep.2007.05.015|10.1016/j.lfs.2006.06.045|10.1016/j.phytol.2010.08.001|10.1021/np0100946|10.1021/np040046w|10.1021/np040129c|10.1021/np100415m|10.1021/np100778k|10.1021/np300824h|10.1021/np50056a018|10.1021/np8004634|10.1021/np900144c|10.1021/np900305j|10.1021/np960422f|10.1021/np980471n|10.1080/08923973.2016.1203929|10.1080/14786419.2018.1468331|10.1093/pcp/pcn183|10.1107/s1600536810029296|10.1128/aem.46.2.468-474.1983

>  <synonyms>  (155) 
92-61-5|Gelseminic acid|7-Hydroxy-6-methoxy-2H-chromen-2-one|6-Methylesculetin|Chrysatropic acid|Murrayetin|Scopoletine|Scopoletol|7-Hydroxy-6-methoxycoumarin|Escopoletin|2H-1-Benzopyran-2-one| 7-hydroxy-6-methoxy-|6-Methoxy-7-hydroxycoumarin|7-Hydroxy-6-methoxy-2H-1-benzopyran-2-one|6-Methoxyumbelliferone|Esculetin 6-methyl ether|beta-Methylesculetin|Buxuletin|Chrysotropic Acid|Acid| Gelseminic|Acid| Chrysotropic|COUMARIN| 7-HYDROXY-6-METHOXY-|CCRIS 3592|NSC 405647|KLF1HS0SXJ|UNII-KLF1HS0SXJ|Baogongteng B|EINECS 202-171-9|BRN 0156296|COPOLETIN|CHEBI:17488|MFCD00006872|CHEMBL71851|DTXSID0075368|Gelseminic acid;Chrysatropic acid|5-18-03-00203 (Beilstein Handbook Reference)|TNP00096|SCOPOLETIN (USP-RS)|SCOPOLETIN USP-RS|SMR000112541|SR-01000841273||Scopoletin| >=99%|SCOPOLETIN MI|Prestwick0_000962|Spectrum2_001207|Spectrum3_001532|Spectrum4_001054|Spectrum5_000654|BIDD:PXR0125|BSPBio_000963|BSPBio_002944|KBioGR_001348|MLS002154074|MLS002472878|DivK1c_000720|SCHEMBL147702|SPECTRUM1502242|7-hydroxy 6-methoxy coumarine|SPBio_000994|SPBio_002884|Scopoletin| analytical standard|BPBio1_001061|MEGxp0_001192|DTXCID5048766|ACon1_000143|HMS502D22|KBio1_000720|KBio3_002444|NINDS_000720|HMS1571A05|HMS1921N16|HMS2098A05|HMS2268G04|HMS3885K10|BCP13342|HY-N0342|6-methoxy-7-oxidanyl-chromen-2-one|BDBM50156693|CCG-39140|s3881|STL570289|TD8126|AKOS000277133|CS-5791|CAS-92-61-5|IDI1_000720|NCGC00016349-01|NCGC00094973-01|1ST40126|AC-34125|AS-65759|NCI60_003834|DB-050232|AB00443525|NS00007731|S0367|C01752|S-2000|A844290|SCOPOLETIN (CONSTITUENT OF STINGING NETTLE)|Q2472366|BRD-K96163925-001-06-5|0B4B9FAA-686D-4977-AA08-65F8E4F1977C|Scopoletin| United States Pharmacopeia (USP) Reference Standard|Scopoletin;6-Methoxyumbelliferone;  7-Hydroxy-6-methoxy-2H-1-benzopyran-2-one|Scopoletin7-Hydroxy-6-methoxy-2H-chromen-2-one; 6-Methylesculetin; Chrysatropic acid|T83|Solanaceae|6-O-methylesculetin

>  <cas>  (155) 
92-61-5

$$$$

     RDKit          2D

 21 24  0  0  0  0  0  0  0  0999 V2000
    5.5444   -2.2187    0.0000 O   0  0  0  0  0  0  0  0  0  0  0  0
    4.2045   -1.5444    0.0000 C   0  0  0  0  0  0  0  0  0  0  0  0
    2.9506   -2.3676    0.0000 C   0  0  0  0  0  0  0  0  0  0  0  0
    1.6107   -1.6933    0.0000 C   0  0  0  0  0  0  0  0  0  0  0  0
    1.5248   -0.1957    0.0000 C   0  0  0  0  0  0  0  0  0  0  0  0
    2.7787    0.6275    0.0000 C   0  0  0  0  0  0  0  0  0  0  0  0
    4.1186   -0.0469    0.0000 C   0  0  0  0  0  0  0  0  0  0  0  0
    2.6928    2.1250    0.0000 O   0  0  0  0  0  0  0  0  0  0  0  0
    1.3529    2.7993    0.0000 C   0  0  0  0  0  0  0  0  0  0  0  0
    0.0989    1.9761    0.0000 C   0  0  0  0  0  0  0  0  0  0  0  0
   -0.1431    3.4565    0.0000 O   0  0  0  0  0  0  0  0  0  0  0  0
   -1.3519    2.3571    0.0000 C   0  0  0  0  0  0  0  0  0  0  0  0
   -2.1625    1.0951    0.0000 C   0  0  0  0  0  0  0  0  0  0  0  0
   -3.6429    0.8531    0.0000 C   0  0  0  0  0  0  0  0  0  0  0  0
   -4.1735   -0.5499    0.0000 C   0  0  0  0  0  0  0  0  0  0  0  0
   -5.6538   -0.7920    0.0000 O   0  0  0  0  0  0  0  0  0  0  0  0
   -3.2237   -1.7110    0.0000 C   0  0  0  0  0  0  0  0  0  0  0  0
   -3.7543   -3.1140    0.0000 O   0  0  0  0  0  0  0  0  0  0  0  0
   -1.7434   -1.4689    0.0000 C   0  0  0  0  0  0  0  0  0  0  0  0
   -1.2128   -0.0659    0.0000 C   0  0  0  0  0  0  0  0  0  0  0  0
    0.1849    0.4786    0.0000 C   0  0  0  0  0  0  0  0  0  0  0  0
  1  2  1  0
  2  3  2  0
  3  4  1  0
  4  5  2  0
  5  6  1  0
  6  7  2  0
  6  8  1  0
  8  9  1  0
  9 10  1  0
 10 11  1  6
 10 12  1  0
 12 13  1  0
 13 14  2  0
 14 15  1  0
 15 16  1  0
 15 17  2  0
 17 18  1  0
 17 19  1  0
 19 20  2  0
 21 20  1  1
  7  2  1  0
 21 10  1  0
 21  5  1  0
 20 13  1  0
M  END
>  <identifier>  (156) 
CNP0384719.1

>  <canonical_smiles>  (156) 
OC1=CC=C2C(=C1)OC[C@]1(O)CC3=CC(O)=C(O)C=C3[C@H]21

>  <standard_inchi>  (156) 
InChI=1S/C16H14O5/c17-9-1-2-10-14(4-9)21-7-16(20)6-8-3-12(18)13(19)5-11(8)15(10)16/h1-5,15,17-20H,6-7H2/t15-,16+/m0/s1

>  <standard_inchi_key>  (156) 
UWHUTZOCTZJUKC-JKSUJKDBSA-N

>  <name>  (156) 
Brazilin

>  <iupac_name>  (156) 
(6~{a}~{S},11~{b}~{R})-7,11~{b}-dihydro-6~{H}-indeno[2,1-c]chromene-3,6~{a},9,10-tetrol

>  <annotation_level>  (156) 
5

>  <total_atom_count>  (156) 
35

>  <heavy_atom_count>  (156) 
21

>  <molecular_weight>  (156) 
286.28

>  <exact_molecular_weight>  (156) 
286.08412

>  <molecular_formula>  (156) 
C16H14O5

>  <alogp>  (156) 
1.61

>  <topological_polar_surface_area>  (156) 
90.15

>  <rotatable_bond_count>  (156) 
0

>  <hydrogen_bond_acceptors>  (156) 
5

>  <hydrogen_bond_donors>  (156) 
4

>  <hydrogen_bond_acceptors_lipinski>  (156) 
5

>  <hydrogen_bond_donors_lipinski>  (156) 
4

>  <lipinski_rule_of_five_violations>  (156) 
0

>  <aromatic_rings_count>  (156) 
2

>  <qed_drug_likeliness>  (156) 
0.55

>  <formal_charge>  (156) 
0

>  <fractioncsp3>  (156) 
0.25

>  <number_of_minimal_rings>  (156) 
4

>  <van_der_walls_volume>  (156) 
242.39

>  <contains_sugar>  (156) 
False

>  <contains_ring_sugars>  (156) 
False

>  <contains_linear_sugars>  (156) 
False

>  <murcko_framework>  (156) 
O1c2ccccc2C3c4ccccc4CC3C1

>  <np_likeness>  (156) 
2.22

>  <chemical_class>  (156) 
Benzopyrans

>  <chemical_sub_class>  (156) 
1-benzopyrans

>  <chemical_super_class>  (156) 
Organoheterocyclic compounds

>  <direct_parent_classification>  (156) 
1-benzopyrans

>  <np_classifier_pathway>  (156) 
Shikimates and Phenylpropanoids

>  <np_classifier_superclass>  (156) 
Isoflavonoids

>  <np_classifier_class>  (156) 
nan

>  <np_classifier_is_glycoside>  (156) 
False

>  <organisms>  (156) 
Biancaea sappan|Caesalpinia bonduc|Caesalpinia crista|Caesalpinia decapetala|Caesalpinia sappan|Haematoxylon brasiletto

>  <collections>  (156) 
BIOFACQUIM|CMAUP (cCollective molecular activities of useful plants)|ChEBI NPs|HIT (Herbal Ingredients Targets)|Latin America dataset|NPASS|Super Natural II|TCMDB-Taiwan (Traditional Chinese Medicine database)|VietHerb|ZINC NP

>  <dois>  (156) 
10.1016/j.bmcl.2012.10.055|10.1016/j.jep.2008.06.005|10.1021/np100920q

>  <synonyms>  (156) 
474-07-7|Brasilin|Braziletto|Natural Red 24|Superbresiline|(+)-BRAZILIN|BRASILINE|CHEBI:3170|FZ39SW1K10|(6aS|11bR)-7|11b-dihydro-6H-indeno2|1-cchromene-3|6a|9|10-tetrol|NSC 56652|7|11b-Dihydrobenz(b)indeno(1|2-d)pyran-3|6a|9|10(6H)-tetrol|c.i. natural red 24|NSC 8661|EINECS 207-477-6|UNII-FZ39SW1K10|NSC-56652|Benz(b)indeno(1|2-d)pyran-3|6a|9|10(6H)-tetrol| 7|11b-dihydro-| (6aS|11bR)-|C.I.Natural Red 24|BRAZILIN MI|SCHEMBL157997|CHEMBL598951|DTXSID80883393|UWHUTZOCTZJUKC-JKSUJKDBSA-N|HMS3887O03|HY-N0072|MFCD00210817|s9428|AKOS030573513|CCG-267339|AS-56044|CI-75280|C.I. 75280|CS-0007115|C09920|Q3643873|(6AS|11BR)-7|11B-DIHYDROBENZ(B)INDENO(1|2-D)PYRAN-3|6A|9|10(6H)-TETROL|(1R|10S)-8-oxatetracyclo8.7.0.0?|?.0??|??heptadeca-2(7)|3|5|12|14|16-hexaene-5|10|14|15-tetrol|Brazilin

>  <cas>  (156) 
474-07-7

$$$$

     RDKit          2D

 22 25  0  0  0  0  0  0  0  0999 V2000
   -5.9175   -0.6738    0.0000 O   0  0  0  0  0  0  0  0  0  0  0  0
   -4.4314   -0.4703    0.0000 C   0  0  0  0  0  0  0  0  0  0  0  0
   -3.8646    0.9185    0.0000 C   0  0  0  0  0  0  0  0  0  0  0  0
   -2.3784    1.1220    0.0000 C   0  0  0  0  0  0  0  0  0  0  0  0
   -1.4591   -0.0633    0.0000 C   0  0  0  0  0  0  0  0  0  0  0  0
   -2.0260   -1.4521    0.0000 C   0  0  0  0  0  0  0  0  0  0  0  0
   -3.5121   -1.6556    0.0000 C   0  0  0  0  0  0  0  0  0  0  0  0
   -4.0789   -3.0444    0.0000 O   0  0  0  0  0  0  0  0  0  0  0  0
   -0.0478    0.4447    0.0000 C   0  0  0  0  0  0  0  0  0  0  0  0
    1.2741   -0.2642    0.0000 C   0  0  0  0  0  0  0  0  0  0  0  0
    1.3212   -1.7635    0.0000 C   0  0  0  0  0  0  0  0  0  0  0  0
    2.6431   -2.4724    0.0000 C   0  0  0  0  0  0  0  0  0  0  0  0
    3.9180   -1.6820    0.0000 C   0  0  0  0  0  0  0  0  0  0  0  0
    5.2399   -2.3909    0.0000 O   0  0  0  0  0  0  0  0  0  0  0  0
    3.8709   -0.1827    0.0000 C   0  0  0  0  0  0  0  0  0  0  0  0
    5.1458    0.6076    0.0000 O   0  0  0  0  0  0  0  0  0  0  0  0
    2.5490    0.5262    0.0000 C   0  0  0  0  0  0  0  0  0  0  0  0
    2.5020    2.0254    0.0000 O   0  0  0  0  0  0  0  0  0  0  0  0
    1.1801    2.7343    0.0000 C   0  0  0  0  0  0  0  0  0  0  0  0
   -0.0948    1.9440    0.0000 C   0  0  0  0  0  0  0  0  0  0  0  0
   -0.2983    3.4301    0.0000 O   0  0  0  0  0  0  0  0  0  0  0  0
   -1.5352    2.3625    0.0000 C   0  0  0  0  0  0  0  0  0  0  0  0
  1  2  1  0
  2  3  2  0
  3  4  1  0
  4  5  2  0
  5  6  1  0
  6  7  2  0
  7  8  1  0
  9  5  1  1
  9 10  1  0
 10 11  2  0
 11 12  1  0
 12 13  2  0
 13 14  1  0
 13 15  1  0
 15 16  1  0
 15 17  2  0
 17 18  1  0
 18 19  1  0
 19 20  1  0
 20 21  1  6
 20 22  1  0
  7  2  1  0
 20  9  1  0
 22  4  1  0
 17 10  1  0
M  END
>  <identifier>  (157) 
CNP0232132.1

>  <canonical_smiles>  (157) 
OC1=CC2=C(C=C1O)[C@@H]1C3=CC=C(O)C(O)=C3OC[C@]1(O)C2

>  <standard_inchi>  (157) 
InChI=1S/C16H14O6/c17-10-2-1-8-13-9-4-12(19)11(18)3-7(9)5-16(13,21)6-22-15(8)14(10)20/h1-4,13,17-21H,5-6H2/t13-,16+/m0/s1

>  <standard_inchi_key>  (157) 
WZUVPPKBWHMQCE-XJKSGUPXSA-N

>  <name>  (157) 
HEMATOXYLIN

>  <iupac_name>  (157) 
(6~{a}~{S},11~{b}~{R})-7,11~{b}-dihydro-6~{H}-indeno[2,1-c]chromene-3,4,6~{a},9,10-pentol

>  <annotation_level>  (157) 
5

>  <total_atom_count>  (157) 
36

>  <heavy_atom_count>  (157) 
22

>  <molecular_weight>  (157) 
302.28

>  <exact_molecular_weight>  (157) 
302.07904

>  <molecular_formula>  (157) 
C16H14O6

>  <alogp>  (157) 
1.32

>  <topological_polar_surface_area>  (157) 
110.38

>  <rotatable_bond_count>  (157) 
0

>  <hydrogen_bond_acceptors>  (157) 
6

>  <hydrogen_bond_donors>  (157) 
5

>  <hydrogen_bond_acceptors_lipinski>  (157) 
6

>  <hydrogen_bond_donors_lipinski>  (157) 
5

>  <lipinski_rule_of_five_violations>  (157) 
0

>  <aromatic_rings_count>  (157) 
2

>  <qed_drug_likeliness>  (157) 
0.47

>  <formal_charge>  (157) 
0

>  <fractioncsp3>  (157) 
0.25

>  <number_of_minimal_rings>  (157) 
4

>  <van_der_walls_volume>  (157) 
250.30

>  <contains_sugar>  (157) 
False

>  <contains_ring_sugars>  (157) 
False

>  <contains_linear_sugars>  (157) 
False

>  <murcko_framework>  (157) 
O1c2ccccc2C3c4ccccc4CC3C1

>  <np_likeness>  (157) 
2.20

>  <chemical_class>  (157) 
Benzopyrans

>  <chemical_sub_class>  (157) 
1-benzopyrans

>  <chemical_super_class>  (157) 
Organoheterocyclic compounds

>  <direct_parent_classification>  (157) 
1-benzopyrans

>  <np_classifier_pathway>  (157) 
Shikimates and Phenylpropanoids

>  <np_classifier_superclass>  (157) 
nan

>  <np_classifier_class>  (157) 
nan

>  <np_classifier_is_glycoside>  (157) 
False

>  <organisms>  (157) 
Caesalpinia sappan|Haematoxylon brasiletto|Haematoxylon compechianum|Haematoxylum campechianum|heamatoxylon campechianum

>  <collections>  (157) 
BIOFACQUIM|CMAUP (cCollective molecular activities of useful plants)|ChEBI NPs|InterBioScreen Ltd|KNApSaCK|Latin America dataset|NPASS|Super Natural II|TCMDB-Taiwan (Traditional Chinese Medicine database)|TIPdb (database of Taiwan indigenous plants)|ZINC NP

>  <dois>  (157) 
10.1016/j.jep.2008.06.005

>  <synonyms>  (157) 
517-28-2|Hydroxybrazilin|Haematoxylin|Natural Black 1|(+)-Hematoxylin|Hematoxylin hydrate|Hydroxylrasilin|1412-19-7|YKM8PY2Z55|(6aS|11bR)-7|11b-dihydro-6H-indeno2|1-cchromene-3|4|6a|9|10-pentol|CHEBI:5601|CHEMBL477197|NCI-C55889|C.I. 75290|(6aS|11bR)-6|6a|7|11b-tetrahydroindeno2|1-cchromene-3|4|6a|9|10-pentaol|(6aS|11bR)-7|11b-dihydrobenzbindeno1|2-dpyran-3|4|6a|9|10(6H)-pentol|NSC 270085|hematoxilina|Benzbindeno1|2-dpyran-3|4|6a|9|10(6H)-pentol| 7|11b-dihydro-|(6aS|11bR)-|Benz(b)indeno(1|2-d)pyran-3|4|6a|9|10(6H)-pentol| 7|11b-dihydro-| cis-(+)-|CCRIS 5916|HSDB 4174|cid_10603|EINECS 208-237-3|UNII-YKM8PY2Z55|DTXSID8020678|Ematossilina|1621-46-1|CI 75290|HEMATOXYLIN MI|C.I. Natural Black 1|HEMATOXYLIN HSDB|SCHEMBL19654|Hematoxylin (Hydroxybrazilin)|Natural Black 1;Haematoxylin|8005-33-2|Hematoxylin (Technical Grade)|Haematoxylin (C.I. 75290)|HMS3656K13|HY-N0116|BDBM50263183|LMPK12100063|MFCD00078111|s2384|AKOS016843524|CCG-267488|CS-5341|FS-4071|NCGC00160144-01|AC-34747|Hematoxylin monohydrate| SAJ special grade|SW219095-1|C09931|Q1146112|Hematoxylin| certified by the Biological Stain Commission|Hematoxylin| for microscopy (Hist.)| indicator (pH 5.0-6.0)|7|11b-Dihydrobenzssindeno1|2-dpyran-3|4|6a|9|10(6H)-pentol

>  <cas>  (157) 
517-28-2|1412-19-7|1621-46-1|8005-33-2

$$$$

     RDKit          2D

 12 12  0  0  0  0  0  0  0  0999 V2000
    3.3750    1.2990    0.0000 O   0  0  0  0  0  0  0  0  0  0  0  0
    2.6250    0.0000    0.0000 C   0  0  0  0  0  0  0  0  0  0  0  0
    3.3750   -1.2990    0.0000 O   0  0  0  0  0  0  0  0  0  0  0  0
    1.1250   -0.0000    0.0000 C   0  0  0  0  0  0  0  0  0  0  0  0
    0.3750   -1.2990    0.0000 C   0  0  0  0  0  0  0  0  0  0  0  0
   -1.1250   -1.2990    0.0000 C   0  0  0  0  0  0  0  0  0  0  0  0
   -1.8750   -2.5981    0.0000 O   0  0  0  0  0  0  0  0  0  0  0  0
   -1.8750    0.0000    0.0000 C   0  0  0  0  0  0  0  0  0  0  0  0
   -3.3750    0.0000    0.0000 O   0  0  0  0  0  0  0  0  0  0  0  0
   -1.1250    1.2990    0.0000 C   0  0  0  0  0  0  0  0  0  0  0  0
   -1.8750    2.5981    0.0000 O   0  0  0  0  0  0  0  0  0  0  0  0
    0.3750    1.2990    0.0000 C   0  0  0  0  0  0  0  0  0  0  0  0
  1  2  2  0
  2  3  1  0
  2  4  1  0
  4  5  2  0
  5  6  1  0
  6  7  1  0
  6  8  2  0
  8  9  1  0
  8 10  1  0
 10 11  1  0
 10 12  2  0
 12  4  1  0
M  END
>  <identifier>  (158) 
CNP0133244.0

>  <canonical_smiles>  (158) 
O=C(O)C1=CC(O)=C(O)C(O)=C1

>  <standard_inchi>  (158) 
InChI=1S/C7H6O5/c8-4-1-3(7(11)12)2-5(9)6(4)10/h1-2,8-10H,(H,11,12)

>  <standard_inchi_key>  (158) 
LNTHITQWFMADLM-UHFFFAOYSA-N

>  <name>  (158) 
Gallic acid

>  <iupac_name>  (158) 
3,4,5-trihydroxybenzoic acid

>  <annotation_level>  (158) 
5

>  <total_atom_count>  (158) 
18

>  <heavy_atom_count>  (158) 
12

>  <molecular_weight>  (158) 
170.12

>  <exact_molecular_weight>  (158) 
170.02152

>  <molecular_formula>  (158) 
C7H6O5

>  <alogp>  (158) 
0.50

>  <topological_polar_surface_area>  (158) 
97.99

>  <rotatable_bond_count>  (158) 
1

>  <hydrogen_bond_acceptors>  (158) 
4

>  <hydrogen_bond_donors>  (158) 
4

>  <hydrogen_bond_acceptors_lipinski>  (158) 
4

>  <hydrogen_bond_donors_lipinski>  (158) 
4

>  <lipinski_rule_of_five_violations>  (158) 
0

>  <aromatic_rings_count>  (158) 
1

>  <qed_drug_likeliness>  (158) 
0.46

>  <formal_charge>  (158) 
0

>  <fractioncsp3>  (158) 
0.00

>  <number_of_minimal_rings>  (158) 
1

>  <van_der_walls_volume>  (158) 
138.07

>  <contains_sugar>  (158) 
False

>  <contains_ring_sugars>  (158) 
False

>  <contains_linear_sugars>  (158) 
False

>  <murcko_framework>  (158) 
c1ccccc1

>  <np_likeness>  (158) 
0.98

>  <chemical_class>  (158) 
Benzene and substituted derivatives

>  <chemical_sub_class>  (158) 
Benzoic acids and derivatives

>  <chemical_super_class>  (158) 
Benzenoids

>  <direct_parent_classification>  (158) 
Hydroxybenzoic acid derivatives

>  <np_classifier_pathway>  (158) 
Shikimates and Phenylpropanoids

>  <np_classifier_superclass>  (158) 
Phenolic acids (C6-C1)

>  <np_classifier_class>  (158) 
Gallotannins

>  <np_classifier_is_glycoside>  (158) 
False

>  <organisms>  (158) 
Aaptos aaptos|Abrus precatorius|Acacia arabica|Acacia cyanophylla|Acacia farnesiana|Acacia horrida|Acacia longifolia|Acacia mellifera|Acacia nilotica|Acacia polyacantha subsp.camphylacantha|Acacia saligna|Acacia seyal|Acacia sieberiana|Acacia tortilis|Acanthospermum glabratum|Acer rubrum|Acer rubrum L.|Achillea clypeolata|Aconitum heterophylloides|Aconitum nevadense|Aconitum seravschanicum|Aconitum tasiromontanum|Aconitum violaceum|Acridocarpus vivy|Acrostichum aureum|Adansonia grandidieri|Adina sessilifolia|Aframomum amaniense|Agaricus hortensis|Agelas linnaei|Aglaia elaeagnoidea|Agrimonia pilosa|Agrimonia pilosa var. japonica|Agrimonia pilosa var.japonica|Ailanthus giraldii|Aizopsis selskiana|Alangium grisolleoides|Alangium platanifolium|Albertisia papuana|Albizia Julibrissin|Albizia myriophylla|Alchornea cordifolia|Alchornea glandulosa|Alectoria divergens|Alexandrium excavatum|Alkanna cappadocica|Allanblackia floribunda|Allium cepa|Allium rosenorum|Allium sativum|Aloe vera|Alphitonia macrocarpa|Alseodaphne corneri|Alternaria japonica|Alyxia reinwardtii|Amomum daniellii|Ampelopsis japonica|Ampelopsis quinquefolia|Amphorogyne spicata|Amsinckia tessellata|Anaphalis lactea|Anchusa azurea|Anethum graveolens|Angelica lucida|Angelica pubescens|Annella reticulata|Annona impressivenia|Anolis lineatopus|Anthelia juratzkana|Anthocleista procera|Aphyllocladus denticulatus|Aplidium orthium|Aplophyllum telephioides|Aplysia parvula|Apterostigma dentigerum|Arca noae|Ardisia colorata|Ardisia japonica|Ardisia paniculata|Areca catechu|Arisarum vulgare|Aristolochia elegans|Aristolochia zollingeriana|Armillaria tabescens|Aronia arbutifolia|Artemisia afra|Artemisia dentata|Artemisia klotzchiana|Artemisia tournefortiana|Arum alpinum|Ascidia ahodori|Asiasarum heterotropoides|Aspalathus linearis|Aspergillus candidus|Aspergillus falconensis|Aspergillus mutabilis|Aspergillus unguis|Asperula odora|Aspidosperma olivaceum|Aster sedifolius|Astraeus pteridis|Astragalus asper|Astragalus cibarius|Astragalus gummifer|Atalantia racemosa|Atalantia wightii|Athanasia crithmifolia|Atractylodes macrocephala|Aucuba chinensis|Aulacocephalus temmincki|Aulacomnium androgynum|Aurelia aurita|Balanophora involucrata|Balanophora japonica|Balanophora laxiflora|Baphicacanthus cusia|Bartramia pomiformis|Bassia muricata|Bauhinia glauca|Beauveria felina|Beilschmiedia anacardioides|Benincasa hispida|Benzoin praecox|Berberis julianae|Bergenia purpurascens|Bersama yangambiensis|Beta vulgaris|Biancaea sappan|Bipolaris heveae|Bistorta manshuriensis|Bistorta officinalis|Bistorta vivipara|Bitis gabonica|Bleekeria vitiensis|Botryosphaeria berengeriana|Brahea armata|Brassica juncea|Brassica oleracea|Brassica oleracea var. sabauda|Brassica rapa|Brenneria rubrifaciens|Brevibacterium linens|Brickellia vernicosa|Bridelia ferruginea|Bridelia micrantha|Brucea javanica|Buddleja cordata|Buphane fischeri|Bussea sakalava|Bystropogon origanifolius|Cacospongia scalaris|Caesalpinia pulcherrima|Caesalpinia sappan|Calcarisporium thermophilum|Calophyllum polyanthum|Camellia pitardii|Camellia sinensis|Canarium album|Capnoides sempervirens|Capsicum annuum|Cardamine pinnata|Cardiospermum halicacabum|Carduus tenuiflorus|Carica dodecaphylla|Carica pennata|Carthamus tinctorius|Casimiroa tetrameria|Castanea vesca|Castanopsis sclerophylla|Catechu|Caulerpa peltata|Caulerpa serrulata|Caulis millettiae|Caulis spatholobi|Caulocystis cephalornithos|Cedronella canariensis|Cedrus libani|Celaenodendron mexicanum|Celtis reticulosa|Centaurea huber-morathii|Centaurea linifolia|Centaurea nigrescens|Centaurea squarrosa|Centella asiatica|Cephalaria grossheimii|Cephalaria paphlagonica|Ceramium rubrum|Cerbera dilatata|Cerinthe minor|Chaenomeles sinensis|Chaetomium carinthiacum|Chaiturus marrubiastrum|Chamaenerion angustifolium|Chamerion angustifolium|Changium smyrnioides|Cheimonophyllum candidissimum|Cheiropteris palmatopedata|Choerospondias axillaris|Chromodoris lochi|Cichorium glandulosum|Cichorium intybus|Cirsium japonicum|Cissus quinquefolia|Citrullus lanatus|Citrus paradisi|Citrus reticulata|Citrus tangerina|Citrus unshiu|Cladiella krempfi|Cleidion brevipetiolatum|Cleome chrysantha|Clerodendron cyrtophyllum|Clibadium mexiae|Cneoridium dumosum|Cneorum pulverulentum|Cnidium officinale|Coccus ilicis|Codonocarpus australis|Codonopsis pilosula|Coespeletia moritziana|Colchicum brachyphyllum|Colchicum speciosum|Combretum quadrangulare|Conocephalum japonicum|Conocybe siliginea|Conus tribblei|Conyza canadensis|Cordia curassavica|Cordylanthus kingii|Coreopsis fasciculata|Coriandrum sativum|Coriaria sinica|Cornus officinalis|Corydalis persica|Corynanthe pachyceras|Cosmos pringlei|Cota tinctoria|Cotinus coggygria|Cotinus coggygria scop. var. cinerea|Cotinus coggygria var. cinerea|Cotula cinerea|Cowania mexicana|Crambe tatarica|Craspidospermum verticillatum|Crataegus pinnatifida|Crateva nurvala|Crepis foetida|Crinipellis scabella|Crinum defixum|Crocus minimus|Crocus sativus|Croton celtidifolius|Croton cumingii|Croton megistocarpus|Croton penduliflorus|Croton tonkinensis|Croton tonkinensis GAGNEP|Cryptocarya alba|Cucumis sativus|Cucurbita maxima|Cucurbita moschata|Cucurbita pepo|Cuminum cyminum|Cunonia macrophylla|Cuphea carthagenensis|Curculigo pilosa|Cyberlindnera jadinii|Cydonia oblonga|Cynoglossum amabile|Cynometra lujae|Cynomorium songaricum|Cystophora scalaris|Cytophaga hutchinsoni|Dacryodes hexandra|Dahlstedtia araripensis|Dalbergia lanceolaria subsp. paniculata|Daphne lancifolia|Daphniphyllum paxianum|Daucus carota|Debregeasia longifolia|Degenia velebitica|Delphinium nuttallianum|Delphinium shawurense|Delphinium virgatum|Dendriopoterium menendezii|Dermocybe canaria|Derris uliginosa|Diabelia serrata|Dichotomaria marginata|Dictyopteris acrostichoides|Dictyopteris australis|Didemnum chartaceum|Dillenia indica|Dimocarpus longan|Dinophysis acuminata|Dioscorea althaeoides|Dioscorea japonica|Dioscorea opposita|Dioscorea polystachya|Dioscoreophyllum cumminsii|Diospyros cinnabarina|Diospyros eriantha|Diospyros kaki|Diospyros verrucosa|Diotis maritima|Dipsacus azureus|Dipteracanthus prostratus|Discaria serratifolia|Disynaphia halimifolia|Dodonaea viscosa|Doodia picta|Dorstenia lindeniana|Drynaria fortunei|Dryopteris polylepis|Dysidea amblia|Dysosma versipellis|Dysoxylum cumingianum|Echium pininana|Ehretia dicksonii|Ekebergia senegalensis|Elsholtzia cristata|Elysia ornata|Emblica officinalis|Ena montana|Enceliopsis argophylla|Entada rheedei|Epichloe festucae var. lolii|Epilobium hirsutum|Epimedium brevicornu|Epimedium grandiflorum|Epimedium koreanum|Epimedium pubescens|Epimedium sagittatum|Epimedium sempervirens|Epimedium wushanense|Epipactis palustris|Equsetum arvense|Eragrostis viscosa|Eria mollis|Eria ramosissima|Eriocheir sinensis|Eriostemon tomentellus|Erodium stephanianum|Erylus trisphaerus|Erythrina sacleuxii|Erythrophleum ivorense|Erythroxylum passerinum|Eskemukerjea megacarpum|Eskemukerjea megacarpum HARA|Etlingera elatior|Eucalyptus camaldulensis|Eucalyptus maideni|Eucalyptus robusta|Eucalyptus sieberiana|Eugenia edulis|Eugenia jambolana|Eugenia sandwicensis|Eunicella cavolinii|Euonymus nanoides|Eupatorium areolare|Euphorbia hirta|Euphorbia humifusa|Euphorbia lunulata|Euphorbia officinarum|Euphorbia pekinensis|Euphorbia segetalis|Euplotes raikovi|Excoecaria cochinchinensis var. viridis|Excoecaria cochinchinensis var.viridis|Exostema acuminatum|FOOD SAKE|Fagraea gracilipes|Fallopia multiflora|Felicia wrightii|Felimida luteorosea|Ficus cordata subsp. salicifolia|Ficus sarmentosa var. thunbergii|Flacourtia jangomas|Foeniculum vulgare|Forsteronia refracta|Fragaria x ananassa|Frankenia laevis|Fraxinus ornus|Fridericia chica|Fritillaria ningguoensis|Fructus choerospondiatis|Fructus mori|Fructus phyllanthi|Fucus vesiculosus|Gadus morhua callarias|Ganoderma lucidum|Ganoderma sinense|Garcinia densivenia|Garcinia hombroniana|Garcinia xipshuanbannaensis|Gardenia jasminoides|Gardenia turgida|Gardneria insularis|Gazania krebsiana|Gemmingia chinensis|Geranium carolinianum|Geranium macrorrhizum L.|Geranium pratense|Geranium sibiricum|Geranium thunbergii|Geranium wilfordii|Gleditsia caspica|Gleichenia quadripartita|Glossocalyx brevipes|Glycine max|Glycosmis pseudoracemosa|Glycyrrhiza lepidota|Glycyrrhiza pallidiflora|Glycyrrhiza uralensis|Gnaphalium oligandrum|Goniothalamus amuyon|Gracilaria textorii|Grangea maderaspatana|Grevillea striata|Grewia mollis|Gutierrezia lucida|Gymnocarpium robertianum|Haematoxylon brasiletto|Haematoxylon campechianum|Haloxylon persicum|Haplophyllum ramosissimum|Harpephyllum caffrum|Helianthus divaricatus|Helichrysum chionosphaerum|Helichrysum cymosum|Helichrysum graveolens|Helichrysum mixtum|Heliomeris multiflora|Heliotropium floridum|Herba acalyphae|Herba selaginellae doederleinii|Heterotheca grandiflora|Hibiscus sabdariffa|Hippophae rhamnoides|Hoffmannia strigillosa|Holomelina lamae|Homo sapiens|Hovenia acerba|Humata pectinata|Humulus lupulus|Humulus yunnanensis|Hygrophorus eburneus|Hylotelephium telephium|Hymenoxys insignis|Hypericum ascyron|Hyphear tanakae|Hypoestes purpurea|Ideopsis similis|Indigofera linnaei|Inula britannica|Inula grantioides|Iryanthera paraensis|Isaria felina|Isaria fumosorosea|Isopyrum thalictroides|Ixeris denticulata|Ixeris stolonifera|Jacobaea analoga|Jacobaea subalpina|Jacquemontia paniculata|Juglans mandshurica|Juglans nigra|Juglans regia|Juniperus horizontalis|Juniperus rigida var. conferta|Justicia hayatai|Justicia paniculata|Justicia secunda|Kaempferia marginata|Kali turgidum|Kaunia saltensis|Khaya ivorensis|Khaya senegalensis|Kitasatospora mediocidica|Lactarius camphoratus|Lactobacillus casei|Lactuca sativa|Lafoensia glyptocarpa|Lagenaria indica|Lagerstroemia indica|Lamellodysidea chlorea|Larix cajanderi|Lathyrus nissolia|Lathyrus tingitanus|Lavandula pedunculata|Lavandula vera|Lemaireocereus griseus|Lens culinaris|Lentinus tigrinus|Leonurus heterophyllus|Leonurus persicus|Lepisanthes tetraphylla|Leptocereus quadricostatus|Leptolaena diospyroidea|Leptolaena pauciflora|Lespedeza bicolor|Lespedeza tomentosa|Ligularia dentata|Ligusticum sinense|Lilium brownii|Lilium brownii f. e. brown var. colchesteri wils|Lilium lancifolium|Lilium pumilum|Limonium gmelinii|Limonium sinense|Liquidambar formosana|Litsea konishii|Litsea lancifolia|Litsea rotundifolia|Lonchocarpus orotinus|Lonicera japonica|Loropetalum chinense|Lotus japonicus|Lupinus corymbosus|Lupinus verbasciformis|Lychnophora columnaris|Lysiana subfalcata|Lythrum salicaria|Macaranga barteri|Macaranga peltata|Machilus macrantha|Macrothele gigas|Magnolia biloba|Magnolia sieboldii|Magnolia sprengeri|Mallotus furetianus|Mallotus villosus|Malus domestica|Malus pumila|Mandragora autumnalis|Mangifera indica|Manilkara zapota|Manilkara zapota cv.Tikal|Marine actinobacterium|Melaleuca rhaphiophylla|Melastoma intermedium|Melia azedarach|Melia azedarach var. toosendan|Mentha gattefossei|Mentha spicata|Meryta lanceolata|Metrodorea nigra|Micarea austroternaria|Miconia cabucu|Miconia myriantha|Micromonospora chalcea|Micromonospora inositola|Microtropis fokienensis|Miliusa sinensis|Miliusa velutina|Millettia duchesnei|Millettia erythrocalyx|Mimusops caffra|Mitracarpus scaber|Modiolus demissus|Monochaetia compta|Monodora brevipes|Morella rubra|Morinda citrifolia|Mortierella elongata|Morus alba|Morus bombycis|Mucor hiemalis|Murraya exotica|Murraya paniculata|Musa acuminata|Mutisia spinosa|Mycobacterium leprae|Mycobacterium tuberculosis|Myrica rubra|Nama hispidum|Narcissus concolor|Nauclea officinalis|Negombata magnifica|Nelumbo nucifera|Neobalanocarpus heimii|Nepeta granatensis|Nerine bowdenii|Nostoc spongiaeforme|Nymphaea caerulea|Olea europaea|Oncoba echinata|Onobrychis arenaria|Ononis vaginalis|Oophaga granulifera|Oophaga pumilio|Ophelia bicornis|Ophiolepis superba|Ophioparma ventosa|Origanum majorana|Origanum vulgare|Ormosia balansae|Orostachys fimbriata|Orostachys japonicus|Oscillatoria princeps|Oscillochloris trichoides|Osteophloeum platyspermum|Osteospermum muricatum|Ozoroa insignis|Paeonia albiflora|Paeonia emodi|Paeonia lactiflora|Paeonia mouton|Paeonia rockii|Paeonia suffruticosa|Paeonia veitchii|Panopsis rubescens|Papilio phorcas|Papularia sphaerosperma|Parabenzoin trilobum|Parablechnum minus|Parastrephia lepidophylla|Paratecoma peroba|Passiflora caerulea|Pastinaca sativa|Peltogyne porphyrocardia|Peltophorum africanum|Penicillium bilaiae|Penicillium herquei|Penicillium kewense|Penicillium paxilli|Penicillium shearii|Penstemon secundiflorus|Peperomia vulcanica|Perenniporia subacida|Perilla frutescens|Perovskia abrotanoides|Persea kusanoi|Persicaria orientalis|Petriella sordida|Petroselinum crispum|Petunia integrifolia subsp. inflata|Peucedanum oroselinum|Peucedanum praeruptorum|Phaeolus schweinitzii|Phallusia nigra|Pharbitis nil|Phaseolus vulgaris|Phedimus kamtschaticus|Phlogacanthus thyrsiflorus|Phoenix dactylifera|Phormia regina|Photinia serratifolia|Phyllanthus emblica|Phyllanthus niruri|Phyllanthus urinaria|Phyllopsora haemophaea|Physalis alkekengi|Physalis edulis|Phytolacca acinosa|Picea rubens|Picrorhiza kurrooa|Pieris napi|Pimenta dioica|Pimpinella anisum|Pinalia stricta|Pinus brutia var. eldarica|Piper arboreum|Piptocarpha oblonga|Pistacia Weinmannifolia|Pistacia chinensis|Pistacia weinmannifolia J.Pisson ex.Franch|Platycarya strobilacea|Plectosphaerella cucumerina|Plectranthus caninus|Pleogyne cunninghami|Pleogyne cunninghamii|Polycephalomyces nipponicus|Polygala amara|Polygonum aviculare|Polygonum bistorta|Polygonum cuspidatum|Polygonum multiflorum|Polypodiodes formosana|Polyporus betulinus|Popillia japonica|Populus tomentosa|Porophyllum ruderale|Posidonia oceanica|Potamilla occelata|Potentilla chinense|Potentilla chinensis|Potentilla discolor|Pouzolzia occidentalis|Premna tomentosa|Prorocentrum micans|Prunus cerasifera|Psephellus bellus|Pseudallescheria boydii|Pseudeurotium zonatum|Pseudodistoma arborescens|Pseudolarix kaempferi Gord.|Psidium guajava|Psittacanthus cucullaris|Psora corallina|Psoroma pallidum|Psychotria stachyoides|Pteris dactylina|Pteris semipinnata|Pulveroboletus retipes|Punica granatum|Punicaceae|Pyrola calliantha|Pyrola decorata|Pyrostegia venusta|Quercus cerris L.|Quercus gilva|Quercus ilex L.|Quercus infectoria|Quercus palustris Muencch.|Quercus petraea Liebl.|Quercus pubescens Willd.|Quercus robur L.|Quercus rubra|Quercus rubra L.|Quercus serrata|Radix euphorbiae pekinensis|Radix ginseng korea|Radix paeoniae rubra|Rana amurensis|Ranunculus ternatus|Rapanea lancifolia|Ratibida mexicana|Rattus rattus|Rauvolfia salicifolia|Reaumuria mucronata|Rehmannia glutinosa|Rhaponticum carthamoides|Rheum australe|Rheum coreanum|Rheum emodii|Rheum hotaoense|Rheum officinale|Rheum palmatum|Rheum rhabarbarum|Rheum tanguticum|Rheum undulatum|Rhinella arenarum|Rhizoma codonopsis pilosulae|Rhizophora apiculata|Rhizoplaca baranowii|Rhodiola crenulata|Rhodiola sachalinensis|Rhodiola sacra|Rhododendron dahuricum|Rhododendron dauricum|Rhus chinensis|Rhus coriaria|Rhus potaninii|Rhus punjabensis|Rhus semialata|Rhus typhina|Rhus wallichi|Rhynchophorus ferrugineus|Ribes nigrum|Ricinus communis|Rivularia firma|Roboastra tigris|Rohdiola sacra|Rosa chinensis|Rosa laevigata|Rosa pomifera|Rosa rugosa|Rubrivivax gelatinosus|Rubus adenotrichos|Rubus chamaemorus|Rubus chingii|Rubus coreanus|Rubus glaucus|Rubus idaeus|Rubus rosa|Rumex obtusifolius|Ruta microcarpa|Ruta pinnata|Sagittaria sagittifolia|Salmonella enterica subsp. enterica serovar bovismorbificans|Salvia dorrii|Salvia greggii|Salvia hispanica|Salvia officinalis|Sanguisorba officinalis|Sapium sebiferum|Sarcolaeana multiflora|Sargassum hemiphyllum|Saussurea amara|Saxifraga stolonifera|Schizonepeta multifida|Schlechtendalia chinensis|Scilla maritima|Scorzonera pseudodivaricata|Sedum takesimense Nakai|Selinum carvifolium|Semecarpus vitiensis|Senecio behnii|Senecio callosus|Senecio inaequidens|Senecio isatideus|Senecio praecox|Senecio renardii|Senecio sinuatus|Senecio subdentatus|Senna siamea|Septoria pistaciarum|Serjania marginata|Serratula inermis|Serratula wolffii|Sesbania bispinosa|Sextonia rubra|Sia ferox|Sidastrum acuminatum|Sideritis euboea|Sideritis hirsuta|Sinapis alba|Sinularia molesta|Sisyrinchium californicum|Solanum lycopersicum|Solanum melongena|Solanum nigrum|Solidago serotina|Sophora angustifolia|Sorbaria sorbifolia|Sorbus tianschanica|Spatholobus suberectus|Sphaerella laricina|Sphaerella rosigena|Spirographis spallanzani|Stephania elegans|Stephania sutchuenensis|Stephanitis takeyai|Stereospermum cylindricum|Stevia polycephala|Stomozoa murrayi|Streptoalloteichus hindustanus|Streptomyces PM9|Streptomyces cellulosae TES17|Streptomyces diastatochromogenes|Streptomyces fumanus|Streptomyces hyaluromycini MB-PO13T|Streptomyces lavendofoliae|Streptomyces odorifer|Streptomyces orinoci|Streptomyces parvisporogenes|Streptomyces paulus|Streptomyces thermoviolaceus|Strophanthus kombe|Strychnos spinosa|Swertia japonica|Swertia swertopsis|Syncarpia hillii|Syncolostemon parviflorus|Syneilesis palmata|Syringa vulgaris|Syzygium aromaticum|Syzygium cordatum|Syzygium cumini|Tagetes filifolia|Tagetes lucida|Tamarix chinensis|Tamarix nilotica|Tanacetum coccineum|Taraxacum bicorne|Taraxacum borealisinense|Taraxacum coreanum|Taraxacum mongolicum|Taraxacum officinale|Taraxacum platycarpum|Taxus baccata|Taxus brevifolia|Terminala chebula|Terminalia bellirica|Terminalia chebula|Terminalia species|Terminalia superba|Tetradium glabrifolium|Tetragonotheca repanda|Tetraneuris acaulis|Teucrium depressum|Teucrium yemense|Thuja plicata|Thunia alba|Thymus piperella|Thymus quinquecostatus|Thymus vulgaris|Todarodes pacificus|Toxicodendron vernicifluum|Trachelospermum asiaticum|Trachelospermum jasminoides|Trachycarpus fortunei|Triaenophora rupestris|Trichilia rubescens|Trichoderma koningi|Tridachia crispata|Triglochin maritima|Trigonella foenum-graecum|Tsuga chinensis|Turbinaria ornata|Turbo argyrostoma|Turpinia arguta|Tussilago farfara|Typha domingensis P.|Ulva lactuca|Uncaria donisii|Uncaria gambir|Unonopsis glaucopetala|Unonopsis spectabilis|Urtica triangularis|Usnea undulata|Utricularia australis|Uvaria griffithii|Vaccinium corymbosum|Valeriana fedtschenkoi|Vepris louisii|Veratrum dahuricum|Verbascum thapsiforme|Vernonia menthaefolia|Vernonia steetziana|Veronica arvensis|Vibrio fluvialis|Vibrio parahaemolyticus|Vicia sylvatica|Virgilia divaricata|Virola multinervia|Viscaria viscosa|Vitellaria paradoxa|Vitex negundo|Vitis vinifera|Woodfordia uniflora|Wulfenia orientalis|Xenia viridis|Xenoacremonium recifei|Xylaria cubensis|Zanthoxylum monophyllum|Zephyranthes sulphurea|Zieria smithii|Zingiber officinale|Ziziphus jujuba|mango tree

>  <collections>  (158) 
ANPDB|AfroCancer|AfroDB|Australian natural products|BIOFACQUIM|BitterDB|CMAUP (cCollective molecular activities of useful plants)|ChEBI NPs|ChemSpider NPs|ConMedNP|EMNPD|Exposome-explorer|FooDB|GNPS (Global Natural Products Social Molecular Networking)|HIM (Herbal Ingredients in-vivo Metabolism database)|HIT (Herbal Ingredients Targets)|InPACdb|InflamNat|InterBioScreen Ltd|KNApSaCK|Latin America dataset|Marine Natural Products|Mitishamba database|NANPDB (Natural Products from Northern African Sources)|NCI DTP data|NPACT|NPASS|NPCARE|NPEdia|NuBBEDB|Phenol-explorer|Phyto4Health|SANCDB|StreptomeDB|Super Natural II|TCMDB-Taiwan (Traditional Chinese Medicine database)|TCMID (Traditional Chinese Medicine Integrated Database)|TIPdb (database of Taiwan indigenous plants)|TPPT (Toxic Plants–PhytoToxins)|UNPD (Universal Natural Products Database)|VietHerb|Watermelon|p-ANAPL

>  <dois>  (158) 
10.1002/9780470744307.gat218|10.1002/food.19880321030|10.1007/s00425-015-2460-8|10.1007/s11130-012-0286-0|10.1007/s11130-020-00822-2|10.1016/S0963-9969(99)00095-2|10.1016/j.bmc.2007.10.072|10.1016/j.bmc.2014.02.014|10.1016/j.bmcl.2011.10.073|10.1016/j.bmcl.2013.09.071|10.1016/j.bmcl.2015.05.089|10.1016/j.canlet.2006.01.001|10.1016/j.chroma.2014.04.007|10.1016/j.fitote.2016.08.013|10.1016/j.foodchem.2006.11.048|10.1016/j.foodchem.2020.128444|10.1016/j.foodcont.2014.02.001|10.1016/j.jep.2008.06.005|10.1016/j.phytochem.2004.11.016|10.1016/j.phytochem.2010.03.018|10.1016/s0960-894x(99)00702-7|10.1021/acs.jnatprod.0c00395|10.1021/acs.jnatprod.5b01073|10.1021/acs.jnatprod.8b00984|10.1021/acs.jnatprod.9b00107|10.1021/jf100233y|10.1021/jf101029a|10.1021/jf4025135|10.1021/np000292h|10.1021/np020018i|10.1021/np0495985|10.1021/np0705615|10.1021/np300212c|10.1021/np50056a033|10.1021/np50057a037|10.1021/np500715x|10.1021/np8004634|10.1021/np900530n|10.1021/np960451q|10.1021/np990271r|10.1021/np9906121|10.1038/sj.ejcn.1602744|10.1071/bt9690133|10.1097/00001813-200111000-00009|10.1111/1750-3841.12404|10.1186/s12906-015-0838-6|10.1186/s12906-015-0873-3|10.1186/s12906-017-1555-0|10.1186/s12906-018-2154-4|10.3109/10408447709082600|10.3390/foods9060770|10.3390/molecules24162945|10.3390/molecules24183212|10.3390/plants11030377|10.3892/or.7.6.1221|10.3945/jn.109.113613|10.7235/HORT.2013.12200

>  <synonyms>  (158) 
149-91-7|3|4|5-Trihydroxybenzoic acid|gallate|Benzoic acid| 3|4|5-trihydroxy-|Gallic acid| tech.|Kyselina gallova|Pyrogallol-5-carboxylic acid|GALOP|HSDB 2117|CCRIS 5523|3|4|5-Trihydroxybenzoate|MFCD00002510|NSC 674319|CHEBI:30778|Kyselina 3|4|5-trihydroxybenzoova|AI3-16412|EINECS 205-749-9|NSC 20103|NSC-20103|UNII-632XD903SP|BRN 2050274|DTXSID0020650|632XD903SP|3|4|5-Trihydroxybenzoic acid| anhydrous|DTXCID60650|CHEMBL288114|3-10-00-02070 (Beilstein Handbook Reference)|NCGC00091125-01|GALLIC ACID ANHYDROUS|Kyselina gallova Czech|Acid| Gallic|CAS-149-91-7|Gallic acid NF|SR-05000001537|gallic-acid|Kyselina 3|4|5-trihydroxybenzoova Czech|Gallic Acid| F|GDE|Gallic Acid1520|Spectrum_000342|SpecPlus_000307|Spectrum2_000399|Spectrum3_000254|Spectrum4_001544|Spectrum5_000108|GALLIC ACID MI|bmse000389|GALLIC ACID HSDB|GALLIC ACID INCI|WLN: QVR CQ DQ EQ|3|4|5-trihydroxy-Benzoate|Oprea1_087792|SCHEMBL15012|BSPBio_001668|KBioGR_002008|KBioSS_000822|SPECTRUM210369|65271-60-5|BIDD:ER0374|DivK1c_006403|GALLIC ACID WHO-DD|SPBio_000617|GTPL5549|KBio1_001347|KBio2_000822|KBio2_003390|KBio2_005958|KBio3_001168|CPD-183|DTXSID50420476|Gallic acid| puriss.| 98.0%|1|5-Cyclohexadiene-1-carboxylic acid| 5-hydroxy-3|4-dioxo-|HMS1923K07|HMS2091A07|Pharmakon1600-00210369|BCP18127|HY-N0523|NSC36997|Tox21_111089|Tox21_202515|BBL009937|BDBM50085536|CCG-38670|NSC755825|s4603|STK298718|AKOS000119625|AC-1206|CS-8191|PS-8710|SDCCGMLS-0066503.P001|NCGC00260064-01|DA-33612|SY038078|SBI-0052184.P002|Gallic acid| 97.5-102.5% (titration)|G0011|NS00013682|EN300-21542|C01424|D85056|3|4|5-trihydroxybenzoic acid (ACD\/Name 4.0)|AB00052697_03|Q375837|Q-201146|BRD-K77345217-001-01-9|F1908-0156|Gallic acid| certified reference material| TraceCERT(R)|Z104501122|78563C7D-0E2D-4766-A8EA-670A03C78FCF|GALLIC ACID (CONSTITUENT OF GRAPE SEEDS OLIGOMERIC PROANTHOCYANIDINS)|InChI=1\/C7H6O5\/c8-4-1-3(7(11)12)2-5(9)6(4)10\/h1-2|8-10H|(H|11|12|137657-43-3|Gallic acid|Punicaceae|Gallic acid| 345-trihydroxybenzoic acid

>  <cas>  (158) 
149-91-7|65271-60-5|137657-43-3

$$$$

     RDKit          2D

  9  9  0  0  0  0  0  0  0  0999 V2000
    3.0000    0.0000    0.0000 O   0  0  0  0  0  0  0  0  0  0  0  0
    1.5000   -0.0000    0.0000 C   0  0  0  0  0  0  0  0  0  0  0  0
    0.7500   -1.2990    0.0000 C   0  0  0  0  0  0  0  0  0  0  0  0
   -0.7500   -1.2990    0.0000 C   0  0  0  0  0  0  0  0  0  0  0  0
   -1.5000   -2.5981    0.0000 O   0  0  0  0  0  0  0  0  0  0  0  0
   -1.5000    0.0000    0.0000 C   0  0  0  0  0  0  0  0  0  0  0  0
   -0.7500    1.2990    0.0000 C   0  0  0  0  0  0  0  0  0  0  0  0
   -1.5000    2.5981    0.0000 O   0  0  0  0  0  0  0  0  0  0  0  0
    0.7500    1.2990    0.0000 C   0  0  0  0  0  0  0  0  0  0  0  0
  1  2  1  0
  2  3  2  0
  3  4  1  0
  4  5  1  0
  4  6  2  0
  6  7  1  0
  7  8  1  0
  7  9  2  0
  9  2  1  0
M  END
>  <identifier>  (159) 
CNP0299558.0

>  <canonical_smiles>  (159) 
OC1=CC(O)=CC(O)=C1

>  <standard_inchi>  (159) 
InChI=1S/C6H6O3/c7-4-1-5(8)3-6(9)2-4/h1-3,7-9H

>  <standard_inchi_key>  (159) 
QCDYQQDYXPDABM-UHFFFAOYSA-N

>  <name>  (159) 
phloroglucinol

>  <iupac_name>  (159) 
benzene-1,3,5-triol

>  <annotation_level>  (159) 
5

>  <total_atom_count>  (159) 
15

>  <heavy_atom_count>  (159) 
9

>  <molecular_weight>  (159) 
126.11

>  <exact_molecular_weight>  (159) 
126.03169

>  <molecular_formula>  (159) 
C6H6O3

>  <alogp>  (159) 
0.80

>  <topological_polar_surface_area>  (159) 
60.69

>  <rotatable_bond_count>  (159) 
0

>  <hydrogen_bond_acceptors>  (159) 
3

>  <hydrogen_bond_donors>  (159) 
3

>  <hydrogen_bond_acceptors_lipinski>  (159) 
3

>  <hydrogen_bond_donors_lipinski>  (159) 
3

>  <lipinski_rule_of_five_violations>  (159) 
0

>  <aromatic_rings_count>  (159) 
1

>  <qed_drug_likeliness>  (159) 
0.48

>  <formal_charge>  (159) 
0

>  <fractioncsp3>  (159) 
0.00

>  <number_of_minimal_rings>  (159) 
1

>  <van_der_walls_volume>  (159) 
109.46

>  <contains_sugar>  (159) 
False

>  <contains_ring_sugars>  (159) 
False

>  <contains_linear_sugars>  (159) 
False

>  <murcko_framework>  (159) 
c1ccccc1

>  <np_likeness>  (159) 
0.77

>  <chemical_class>  (159) 
Phenols

>  <chemical_sub_class>  (159) 
Benzenetriols and derivatives

>  <chemical_super_class>  (159) 
Benzenoids

>  <direct_parent_classification>  (159) 
Phloroglucinols and derivatives

>  <np_classifier_pathway>  (159) 
Polyketides

>  <np_classifier_superclass>  (159) 
Phloroglucinols

>  <np_classifier_class>  (159) 
Oligomeric phloroglucinols (phlorotannins)

>  <np_classifier_is_glycoside>  (159) 
False

>  <organisms>  (159) 
Acacia arabica|Alkanna cappadocica|Allium cepa|Alliun cepa|Alpinia blepharocalyx|Artemisia dentata|Atalantia racemosa|Buddleja cordata|Buphane fischeri|Crambe tatarica|Cystophora retroflexa|Cystoseira tamariscifolia|Diospyros eriantha|Dryopteris crassirhizoma|Ecklonia cava|Ecklonia stolonifera|Eisenia bicyclis|Eucalyptus calophylla|Fritillaria ningguoensis|Haematoxylon brasiletto|Hoffmannia strigillosa|Homo sapiens|Humulus lupulus|Hypericum perforatum|Juniperus rigida var. conferta|Lemaireocereus griseus|Lychnis dioica|Mallotus philippinensis|Malus pumila|Millettia erythrocalyx|Mycobacterium leprae|Negombata magnifica|Ononis vaginalis|Posidonia oceanica|Prorocentrum micans|Pteris semipinnata|Rapanea lancifolia|Salvia hispanica|Scorzonera pseudodivaricata|Sequoia gigantea|Sequoia sempervirens|Spatholobus suberectus|Streptomyces nigra 452T|Syncarpia hillii|Xenoacremonium recifei

>  <collections>  (159) 
Australian natural products|BIOFACQUIM|CMAUP (cCollective molecular activities of useful plants)|CMNPD|ChEBI NPs|DrugBankNP|ETM (Ethiopian Traditional Medicine) DB|Exposome-explorer|FooDB|HIM (Herbal Ingredients in-vivo Metabolism database)|KNApSaCK|Latin America dataset|Marine Natural Products|NPACT|NPASS|NPEdia|Phyto4Health|Seaweed Metabolite Database (SWMD)|StreptomeDB|Super Natural II|TCMDB-Taiwan (Traditional Chinese Medicine database)|UNPD (Universal Natural Products Database)|VietHerb

>  <dois>  (159) 
10.1007/bf02977904|10.1016/j.bmc.2009.01.031|10.1016/j.bmc.2013.04.026|10.1016/j.bmcl.2010.04.093|10.1016/j.jep.2008.06.005|10.1016/j.talanta.2014.11.059|10.1021/jf1017143|10.1021/np000496y|10.1021/np050164z|10.1038/186635a0|10.1039/np9840100251|10.3389/fmicb.2018.01587

>  <synonyms>  (159) 
108-73-6|Benzene-1|3|5-triol|1|3|5-trihydroxybenzene|Phloroglucin|1|3|5-benzenetriol|Spasfon-Lyoc|Dilospan S|sym-Trihydroxybenzene|Benzene-s-triol|5-Hydroxyresorcinol|Benzene| trihydroxy|5-Oxyresorcinol|3|5-Dihydroxyphenol|Floroglucin|Phloroglucinol anhydrous|1|3|5-Triol|1|3|5-THB|5-Oxyresorcinolphloroglucin|1|3|5-Trihydroxycyclohexatriene|Benzene| 1|3|5-trihydroxy-|NSC 1572|MFCD00002286|CCRIS 4147|DHD7FFG6YS|UNII-DHD7FFG6YS|5-Benzenetriol|NSC-1572|EINECS 203-611-2|BRN 1341907|Phloroglucinol (JAN)|CHEBI:16204|AI3-08848|CHEMBL473159|4-06-00-07361 (Beilstein Handbook Reference)|PHLOROGLUCINOL JAN|PHLOROGLUCINOL (MART.)|Floroglucin Czech|PHLOROGLUCINOL (EP MONOGRAPH)|NCGC00166270-01|13X|Dilospan S (TN)|Phloroglucinol BAN|WLN: QR CQ EQ|PHLOROGLUCINOL MI|SCHEMBL26311|Phloroglucinol| p.a.| 99%|PHLOROGLUCINOL WHO-DD|1|3|5-Benzenetriol| anhydrous|DTXSID9048354|BBL018701|BDBM50249069|STL146346|phloroglucinol (1|3|5-benzenetriol)|Phloroglucinol| >=99.0% (HPLC)|AKOS000119851|AM84333|DB12944|FS-4574|1|3|5-Benzenetriol (ACD\/Name 4.0)|AC-10081|NS00013979|P0249|P1376|EN300-19648|Phloroglucinol 100 microg\/mL in Acetonitrile|C02183|D00152|F13526|A801919|Q899008|Q-200070|Phloroglucinol| plant cell culture tested| BioReagent|F0001-0177|Z104474594|Phloroglucinol| Used to detect the presence of wood fiber.|1|3|5-Benzenetriol; 1|3|5-THB; 1|3|5-Trihydroxybenzene|InChI=1\/C6H6O3\/c7-4-1-5(8)3-6(9)2-4\/h1-3|7-9|Phloroglucinol (anhydrous)| European Pharmacopoeia (EP) Reference Standard|phloroglucinol

>  <cas>  (159) 
108-73-6

$$$$

     RDKit          2D

 13 13  0  0  0  0  0  0  0  0999 V2000
   -4.6042    0.6994    0.0000 C   0  0  0  0  0  0  0  0  0  0  0  0
   -3.1132    0.8635    0.0000 O   0  0  0  0  0  0  0  0  0  0  0  0
   -2.2255   -0.3456    0.0000 C   0  0  0  0  0  0  0  0  0  0  0  0
   -2.8289   -1.7189    0.0000 O   0  0  0  0  0  0  0  0  0  0  0  0
   -0.7346   -0.1814    0.0000 C   0  0  0  0  0  0  0  0  0  0  0  0
   -0.1312    1.1919    0.0000 C   0  0  0  0  0  0  0  0  0  0  0  0
    1.3597    1.3561    0.0000 C   0  0  0  0  0  0  0  0  0  0  0  0
    1.9630    2.7294    0.0000 O   0  0  0  0  0  0  0  0  0  0  0  0
    2.2474    0.1469    0.0000 C   0  0  0  0  0  0  0  0  0  0  0  0
    3.7384    0.3111    0.0000 O   0  0  0  0  0  0  0  0  0  0  0  0
    1.6441   -1.2264    0.0000 C   0  0  0  0  0  0  0  0  0  0  0  0
    2.5318   -2.4355    0.0000 O   0  0  0  0  0  0  0  0  0  0  0  0
    0.1531   -1.3906    0.0000 C   0  0  0  0  0  0  0  0  0  0  0  0
  1  2  1  0
  2  3  1  0
  3  4  2  0
  3  5  1  0
  5  6  2  0
  6  7  1  0
  7  8  1  0
  7  9  2  0
  9 10  1  0
  9 11  1  0
 11 12  1  0
 11 13  2  0
 13  5  1  0
M  END
>  <identifier>  (160) 
CNP0110273.0

>  <canonical_smiles>  (160) 
COC(=O)C1=CC(O)=C(O)C(O)=C1

>  <standard_inchi>  (160) 
InChI=1S/C8H8O5/c1-13-8(12)4-2-5(9)7(11)6(10)3-4/h2-3,9-11H,1H3

>  <standard_inchi_key>  (160) 
FBSFWRHWHYMIOG-UHFFFAOYSA-N

>  <name>  (160) 
METHYL GALLATE

>  <iupac_name>  (160) 
methyl 3,4,5-trihydroxybenzoate

>  <annotation_level>  (160) 
5

>  <total_atom_count>  (160) 
21

>  <heavy_atom_count>  (160) 
13

>  <molecular_weight>  (160) 
184.15

>  <exact_molecular_weight>  (160) 
184.03717

>  <molecular_formula>  (160) 
C8H8O5

>  <alogp>  (160) 
0.59

>  <topological_polar_surface_area>  (160) 
86.99

>  <rotatable_bond_count>  (160) 
1

>  <hydrogen_bond_acceptors>  (160) 
5

>  <hydrogen_bond_donors>  (160) 
3

>  <hydrogen_bond_acceptors_lipinski>  (160) 
5

>  <hydrogen_bond_donors_lipinski>  (160) 
3

>  <lipinski_rule_of_five_violations>  (160) 
0

>  <aromatic_rings_count>  (160) 
1

>  <qed_drug_likeliness>  (160) 
0.44

>  <formal_charge>  (160) 
0

>  <fractioncsp3>  (160) 
0.13

>  <number_of_minimal_rings>  (160) 
1

>  <van_der_walls_volume>  (160) 
154.46

>  <contains_sugar>  (160) 
False

>  <contains_ring_sugars>  (160) 
False

>  <contains_linear_sugars>  (160) 
False

>  <murcko_framework>  (160) 
c1ccccc1

>  <np_likeness>  (160) 
0.71

>  <chemical_class>  (160) 
Benzene and substituted derivatives

>  <chemical_sub_class>  (160) 
Benzoic acids and derivatives

>  <chemical_super_class>  (160) 
Benzenoids

>  <direct_parent_classification>  (160) 
p-Hydroxybenzoic acid alkyl esters

>  <np_classifier_pathway>  (160) 
Shikimates and Phenylpropanoids

>  <np_classifier_superclass>  (160) 
Phenolic acids (C6-C1)

>  <np_classifier_class>  (160) 
Simple phenolic acids

>  <np_classifier_is_glycoside>  (160) 
False

>  <organisms>  (160) 
Aaptos aaptos|Absidia caerulea|Acacia farnesiana|Acacia nilotica subsp. tomentosa|Acer pictum subsp. okamotoanum|Acer rubrum|Acer rubrum L.|Aconitum nevadense|Aconitum violaceum|Actinoplanes friuliensis|Agaricus blazei|Agelas linnaei|Aglaia elaeagnoidea|Agrostis epigeios|Ailanthus giraldii|Aizopsis selskiana|Albizia myriophylla|Alchornea cordifolia|Alchornea glandulosa|Alexandrium excavatum|Alseodaphne corneri|Alsidium corallinum|Alternaria japonica|Amomum daniellii|Amphimedon paraviridis|Amphorogyne spicata|Anaphalis lactea|Anchusa azurea|Annona impressivenia|Annulohypoxylon truncatum|Anthotroche myoporoides|Aplidium orthium|Apterostigma dentigerum|Aristolochia elegans|Ascidia ahodori|Aspergillus candidus|Aspergillus falconensis|Aspergillus unguis|Astragalus flexus|Astragalus gummifer|Atalantia wightii|Aulacocephalus temmincki|Axinella weltneri|Bacillus thuringiensis|Balanophora japonica|Balanophora laxiflora|Bauhinia glauca|Beauveria felina|Benincasa hispida|Bersama yangambiensis|Bipolaris heveae|Bleekeria vitiensis|Brenneria rubrifaciens|Brucea javanica|Bryum pseudotriquetrum|Calcarisporium thermophilum|Calodendrum capense|Camellia pitardii|Canavalia gladiata|Cardiospermum halicacabum|Carduus tenuiflorus|Carpinus cordata|Castanopsis sclerophylla|Casuarina equisetifolia|Caulerpa peltata|Caulerpa serrulata|Centaurea nigrescens|Centaurea squarrosa|Cephalaria paphlagonica|Ceramium rubrum|Chaetomium carinthiacum|Chaiturus marrubiastrum|Championella japonica|Chilo suppressalis|Cirsium japonicum|Cladiella krempfi|Clematis tangutica|Coccinia grandis|Codonopsis pilosula|Colchicum brachyphyllum|Combretum quadrangulare|Commelina communis|Conocephalum japonicum|Conyza canadensis|Cordylanthus kingii|Coreopsis fasciculata|Corydalis persica|Corynanthe pachyceras|Cota tinctoria|Cotinus coggygria|Cratena peregrina|Crepis foetida|Crinipellis scabella|Crinum defixum|Croton caudatus|Croton celtidifolius|Croton cumingii|Cuphea carthagenensis|Cyberlindnera jadinii|Cymbopogon proximus|Cynoglossum amabile|Cynoglossum germanicum|Cystophora scalaris|Dactynotus ambrosiae|Dalbergia lanceolaria subsp. paniculata|Degenia velebitica|Delphinium nuttallianum|Delphinium shawurense|Delphinium virgatum|Dillenia indica|Dioscorea membranacea|Dioscoreophyllum cumminsii|Dipsacus azureus|Dipteracanthus prostratus|Disynaphia halimifolia|Doodia picta|Dorstenia lindeniana|Drynaria quercifolia|Dryopteris polylepis|Dysidea amblia|Ekebergia senegalensis|Elaeagnus formosana|Elaeocarpus fuscoides|Eragrostis viscosa|Erythrina vogelii|Erythrophleum ivorense|Eskemukerjea megacarpum|Eucalyptus gomphocephala|Eunicella cavolinii|Euonymus atropurpureus|Euonymus verrucosus|Euphorbia ebracteolata|Euphorbia fischeriana|Euphorbia jolkini|Euphorbia pekinensis|Euphorbia segetalis|Euplotes raikovi|Evodia rutaecarpa|Fagaropsis glabra|Fagraea gracilipes|Festuca versuta|Forsteronia refracta|Fridericia chica|Fusarium larvarum|Galdieria sulphuraria|Garcinia hombroniana|Garcinia xipshuanbannaensis|Gemmingia chinensis|Geranium niveum|Geranium pratense subsp.finitimum (Woronow) Knuth|Glaucium corniculatum|Glechoma grandis|Glechoma longituba|Gleichenia quadripartita|Glycosmis pseudoracemosa|Grangea maderaspatana|Grewia mollis|Gutierrezia lucida|Gymnocarpium robertianum|Haematoxylon brasiletto|Haematoxylon campechianum|Harpephyllum caffrum|Helenium virginicum|Helichrysum chionosphaerum|Helichrysum graveolens|Heliotropium digynum|Heliotropium floridum|Heterometra savignii|Heterotheca grandiflora|Hovenia acerba|Hygrophorus eburneus|Hypericum caprifoliatum|Hypericum mysorense|Inella verrucosa|Inula grantioides|Iryanthera paraensis|Jacobaea adonidifolia|Jacquemontia paniculata|Jasminum humile|Juglans nigra|Juniperus horizontalis|Kaempferia marginata|Kaunia saltensis|Koelreuteria paniculata|Lactarius camphoratus|Lactococcus lactis|Lagerstroemia indica|Larix decidua|Lathyrus nissolia|Lathyrus tingitanus|Lechevalieria aerocolonigenes|Leontopodium nanum|Leonurus persicus|Lepraria xanthina|Leptocereus quadricostatus|Lespedeza tomentosa|Litsea rotundifolia|Litsea zeylanica|Lupinus corymbosus|Macaranga barteri|Macaranga tanarius|Macowania glandulosa|Magnolia sieboldii|Mallotus villosus|Mandragora autumnalis|Mangifera indica|Martynia louisiana|Meconopsis horridula|Melaphis chinensis|Metrodorea nigra|Micromonospora inositola|Modiolus demissus|Morus cathayana|Myrmica rubra|Nannoglottis ravida|Narcissus concolor|Nauclea officinalis|Neolitsea zeylanica|Nepeta granatensis|Nephthea brassica|Oncoba echinata|Onobrychis arenaria|Oophaga granulifera|Ophiolepis superba|Ormosia balansae|Orostachys fimbriata|Orostachys japonicus|Oscillatoria princeps|Ostrea chilensis|Oxera splendida|Ozoroa insignis|Paeonia emodi|Paeonia hybrida|Paeonia lactiflora|Paeonia rockii|Paeonia suffruticosa|Papilio phorcas|Parabenzoin trilobum|Parastrephia lepidophylla|Peltogyne porphyrocardia|Penicillium bilaiae|Penicillium crustaceum|Penicillium kewense|Penicillium shearii|Penstemon secundiflorus|Perenniporia subacida|Petunia integrifolia subsp. inflata|Peucedanum oroselinum|Phedimus kamtschaticus|Phlogacanthus thyrsiflorus|Phormia regina|Photinia serratifolia|Phyllanthus emblica|Phyllidia ocellata|Phyllopsora haemophaea|Phytolacca acinosa|Picea rubens|Pinalia stricta|Pinus brutia var. eldarica|Piper arboreum|Pistacia Weinmannifolia|Pistacia weinmannifolia J.Pisson ex.Franch|Plectosphaerella cucumerina|Plectranthus caninus|Polyalthia insignis|Polycephalomyces nipponicus|Polyporus betulinus|Pouzolzia occidentalis|Prunus cerasifera|Pseudeurotium zonatum|Pseudophryne coriacea|Punica granatum|Quercus rubra|Ratibida mexicana|Rauvolfia salicifolia|Rheum officinale|Rhizoplaca baranowii|Rhododendron dahuricum|Rhus chinensis|Rhus potaninii|Rhus punjabensis|Rhynchophorus ferrugineus|Ribes nigrum|Roboastra tigris|Rosa multiflora|Rosa pomifera|Rubrivivax gelatinosus|Ruta microcarpa|Ruta pinnata|Salacia fruticosa|Salmonella enterica subsp. enterica serovar bovismorbificans|Salvia dorrii|Salvia greggii|Schlechtendalia chinensis|Sedum takesimense Nakai|Selinum carvifolium|Senecio behnii|Senecio praecox|Sidastrum acuminatum|Sophora angustifolia|Spatoglossum variabile|Sphaerella rosigena|Stephanitis takeyai|Stevia polycephala|Stevia purpurea|Streptomyces diastatochromogenes|Streptomyces kanamyceticus|Streptomyces parvisporogenes|Strophanthus preussii|Strychnos spinosa|Swartzia madagascariensis|Syncolostemon parviflorus|Syneilesis palmata|Tachigalia paniculata|Tagetes filifolia|Tanacetum coccineum|Taraxacum mongolicum|Terminalia bellirica|Terminalia chebula|Terminalia superba|Tetradium glabrifolium|Teucrium depressum|Thuja plicata|Thymus piperella|Trichilia rubescens|Triglochin maritima|Turpinia arguta|Uncaria donisii|Urtica triangularis|Verbascum thapsiforme|Vitex pinnata|Wolfiporia cocos|Zanthoxylum monophyllum

>  <collections>  (160) 
ANPDB|Australian natural products|BIOFACQUIM|CMAUP (cCollective molecular activities of useful plants)|ChemSpider NPs|ConMedNP|EMNPD|FooDB|GNPS (Global Natural Products Social Molecular Networking)|InterBioScreen Ltd|KNApSaCK|Latin America dataset|Marine Natural Products|NANPDB (Natural Products from Northern African Sources)|NPACT|NPASS|NPCARE|NuBBEDB|Phyto4Health|PubChem NPs|SANCDB|Super Natural II|TCMDB-Taiwan (Traditional Chinese Medicine database)|TCMID (Traditional Chinese Medicine Integrated Database)|TIPdb (database of Taiwan indigenous plants)|UNPD (Universal Natural Products Database)|VietHerb|ZINC NP

>  <dois>  (160) 
10.1016/j.bmcl.2011.10.073|10.1016/j.bmcl.2015.05.089|10.1016/j.foodchem.2020.128444|10.1016/j.jep.2008.06.005|10.1016/j.jep.2013.09.016|10.1021/jf100233y|10.1021/jf101029a|10.1021/np000292h|10.1021/np020048l|10.1021/np0200764|10.1021/np970171q|10.1021/np980467b|10.1055/s-2006-962094|10.1177/1934578x1000501025

>  <synonyms>  (160) 
Methyl 3|4|5-trihydroxybenzoate|99-24-1|Gallic acid methyl ester|Methylgallate|Benzoic acid| 3|4|5-trihydroxy-| methyl ester|CCRIS 5567|methyl galloate|AI3-00861|3|4|5-Trihydroxy-benzoic acid methyl ester|EINECS 202-741-7|NSC 363001|UNII-623D3XG80C|BRN 2113180|623D3XG80C|MFCD00002194|CHEMBL65675|CHEBI:145828|4-10-00-01998 (Beilstein Handbook Reference)|M G|GALLINCIN|cid_7428|6-methylthiomorpholin-3-one|SCHEMBL39513|MLS000574912|DTXSID3059189|HMS2210A23|HMS3346G16|HY-N2010|BBL010505|BDBM50187133|s3790|STL146151|methyl 3|4|5-tris(oxidanyl)benzoate|AKOS000277450|GALLIC ACID METHYL ESTER MI|CCG-266463|NCGC00247606-01|AC-11364|AC-34481|AS-14808|SMR000156263|SY011144|DB-057768|CS-0018330|G0017|NS00040545|EN300-393116|A845986|CS-008\/03903045|W-100047|Q15425833|Gallincin;NSC 363001;Methyl-3|4|5-trihydroxybenzoate|Z1255434713|InChI=1\/C8H8O5\/c1-13-8(12)4-2-5(9)7(11)6(10)3-4\/h2-3|9-11H|1H

>  <cas>  (160) 
99-24-1

$$$$

     RDKit          2D

 13 13  0  0  0  0  0  0  0  0999 V2000
   -4.2741   -1.4221    0.0000 O   0  0  0  0  0  0  0  0  0  0  0  0
   -3.9076    0.0325    0.0000 C   0  0  0  0  0  0  0  0  0  0  0  0
   -4.9841    1.0771    0.0000 O   0  0  0  0  0  0  0  0  0  0  0  0
   -2.4647    0.4424    0.0000 C   0  0  0  0  0  0  0  0  0  0  0  0
   -1.3883   -0.6022    0.0000 C   0  0  0  0  0  0  0  0  0  0  0  0
    0.0546   -0.1922    0.0000 C   0  0  0  0  0  0  0  0  0  0  0  0
    0.4211    1.2623    0.0000 C   0  0  0  0  0  0  0  0  0  0  0  0
    1.8639    1.6722    0.0000 C   0  0  0  0  0  0  0  0  0  0  0  0
    2.9404    0.6276    0.0000 C   0  0  0  0  0  0  0  0  0  0  0  0
    4.3833    1.0376    0.0000 O   0  0  0  0  0  0  0  0  0  0  0  0
    2.5740   -0.8269    0.0000 C   0  0  0  0  0  0  0  0  0  0  0  0
    3.6504   -1.8715    0.0000 O   0  0  0  0  0  0  0  0  0  0  0  0
    1.1311   -1.2369    0.0000 C   0  0  0  0  0  0  0  0  0  0  0  0
  1  2  2  0
  2  3  1  0
  2  4  1  0
  4  5  2  3
  5  6  1  0
  6  7  2  0
  7  8  1  0
  8  9  2  0
  9 10  1  0
  9 11  1  0
 11 12  1  0
 11 13  2  0
 13  6  1  0
M  END
>  <identifier>  (161) 
CNP0186784.0

>  <canonical_smiles>  (161) 
O=C(O)C=CC1=CC=C(O)C(O)=C1

>  <standard_inchi>  (161) 
InChI=1S/C9H8O4/c10-7-3-1-6(5-8(7)11)2-4-9(12)13/h1-5,10-11H,(H,12,13)

>  <standard_inchi_key>  (161) 
QAIPRVGONGVQAS-UHFFFAOYSA-N

>  <name>  (161) 
DTXSID5020231

>  <iupac_name>  (161) 
3-(3,4-dihydroxyphenyl)prop-2-enoic acid

>  <annotation_level>  (161) 
5

>  <total_atom_count>  (161) 
21

>  <heavy_atom_count>  (161) 
13

>  <molecular_weight>  (161) 
180.16

>  <exact_molecular_weight>  (161) 
180.04226

>  <molecular_formula>  (161) 
C9H8O4

>  <alogp>  (161) 
1.20

>  <topological_polar_surface_area>  (161) 
77.76

>  <rotatable_bond_count>  (161) 
2

>  <hydrogen_bond_acceptors>  (161) 
3

>  <hydrogen_bond_donors>  (161) 
3

>  <hydrogen_bond_acceptors_lipinski>  (161) 
3

>  <hydrogen_bond_donors_lipinski>  (161) 
3

>  <lipinski_rule_of_five_violations>  (161) 
0

>  <aromatic_rings_count>  (161) 
1

>  <qed_drug_likeliness>  (161) 
0.47

>  <formal_charge>  (161) 
0

>  <fractioncsp3>  (161) 
0.00

>  <number_of_minimal_rings>  (161) 
1

>  <van_der_walls_volume>  (161) 
156.18

>  <contains_sugar>  (161) 
False

>  <contains_ring_sugars>  (161) 
False

>  <contains_linear_sugars>  (161) 
False

>  <murcko_framework>  (161) 
c1ccccc1

>  <np_likeness>  (161) 
1.12

>  <chemical_class>  (161) 
Cinnamic acids and derivatives

>  <chemical_sub_class>  (161) 
Hydroxycinnamic acids and derivatives

>  <chemical_super_class>  (161) 
Phenylpropanoids and polyketides

>  <direct_parent_classification>  (161) 
Hydroxycinnamic acids

>  <np_classifier_pathway>  (161) 
Shikimates and Phenylpropanoids

>  <np_classifier_superclass>  (161) 
Phenylpropanoids (C6-C3)

>  <np_classifier_class>  (161) 
Cinnamic acids and derivatives

>  <np_classifier_is_glycoside>  (161) 
False

>  <organisms>  (161) 
Abelia chinensis|Abies alba|Abrus precatorius|Abutilon theophrasti|Acacia armata|Acacia aulacocarpa|Acacia confusa|Acacia lemmoni|Acanthella acuta|Achillea millefolium|Achillea pratensis|Acinidia rubricaulis var.coriacea|Aconitum koreanum|Aconitum leucostomum|Acrocarpia paniculata|Actaea dahurica|Actaea heracleifolia|Actaea racemosa|Actaea simplex|Actinidia arguta|Actinidia callosa var. henryi|Actinidia callosa var.henryi|Actinidia chinensis|Actinidia chrysantha|Actinidia deliciosa|Actinidia eriantha|Actinidia glaucophylla|Actinidia latifolia|Actinidia polygama|Actinidia polygana|Actinidia rubricaulis var. coriacea|Adenia globosa|Adenocaulon adhaerescens|Adonis aleppica|Adonis sutchuenensis|Aeschynomene americana|Agathis lanceolata|Agave salmiana|Aglaia grandis|Aglaia ignea|Agrimonia pilosa|Agrimonia pilosa var. japonica|Agrimonia pilosa var.japonica|Akebia quinata|Alangium platanifolium|Alcea nudiflora|Alcea rosea|Alectoria rigida|Alibertia macrophylla|Alkanna cappadocica|Allium cepa|Allium fistulosum|Allium sativum|Allochromatium minutissimum|Allophoma tropica|Alluaudia dumosa|Aloe africana|Aloe ferox|Aloe spicata|Aloe vera|Alternanthera bettzickiana|Amentotaxus yunnanensis|Amsinckia tessellata|Anaphalis araneosa|Anaphalis margaritacea|Anarsia lineatella|Andrographis elongata|Andrographis paniculata|Anemone flaccida|Anethum graveolens|Angelica acutiloba|Angelica gigas|Angelica sinensis|Angelica ursina|Anodendron affine|Anolis lineatopus|Anthemis nobilis|Antitoxicum scanden|Apis mellifera|Apis mellifera ligustica|Aplophyllum alberti-regelii|Apocynum venetum|Apollonias barbujana|Aquilegia ecalcarata|Arabidopsis thaliana|Arachis glabrata|Arachis hypogaea|Aralia subcapitata|Arctium lappa|Ardisia macrocarpa|Ardisia neriifolia|Argylia radiata|Armillaria tabescens|Aronia melanocarpa|Artemisia annua L.|Artemisia anomala|Artemisia apiacea|Artemisia capillaries|Artemisia capillaris|Artemisia dentata|Artemisia dracunculus|Artemisia echegarayi|Artemisia hanseniana|Artemisia iwayomogi|Artemisia juncea|Artemisia kurramensis|Artemisia minor|Artemisia rutifolia|Artemisia scoparia|Artemisia siversiana|Arum montanum|Aruncus diocus|Asimina parviflora|Aspalathus linearis|Aspergillus mutabilis|Asperula odora|Aspidixia articulata|Aspidosperma subincanum|Aster salignus|Asterias rubens|Astragalus arguricus|Astragalus cicer|Astragalus ciceroides|Astragalus ernestii|Astragalus flexus|Astragalus floccosifolius|Astragalus icmadophilus|Astragalus levieri|Astragalus onobrychis|Astragalus quisqualis|Astragalus saganlugensis|Atalantia racemosa|Athrixia arachnoidea|Atraphaxis spinosa|Atriplex parvifolia|Aucuba chinensis|Audouinia tentaculata|Aurelia aurita|Avena sativa|Baccharis neglecta|Balanophora japonica|Baphia bancoensis|Begonia nantoensis|Berneuxia thibetica|Beta vulgaris|Betonica officinalis|Bhesa nitidissima|Bistorta vivipara|Blechnum orientale|Blepharis ciliaris|Blumea mollis|Boehmeria holosericea|Boehmeria tricuspis|Bongardia chrysogonum|Boronia lanceolata|Boschniakia rossica|Brainea insignis|Brassica juncea|Brassica oleracea|Brassica rapa|Briareum asbestinum|Briareum violacea|Brickellia vernicosa|Buddleja cordata|Bunodosoma caissarum|Buphane fischeri|Bupleurum sibiricum|Calligonum leucocladum|Callitris drummondii|Callyspongia fibrosa|Calycanthus floridus|Campanula pendula|Camponotus pennsylvanicus|Campsis grandiflora|Camptothecium lutescens|Capparis angulata|Capsicum annuum|Capuronianthus mahafalensis|Cardiospermum hirsutum|Carica dodecaphylla|Carissa spinarum|Carlina acaulis|Carthamus tinctorius|Carum carvi|Cassia alata|Catunaregam tomentosa|Ceanothus velutinus|Cedrela salvadorensis|Cedronella canariensis|Centaurea bracteata Scop.|Centaurea cyanus|Centaurea huber-morathii|Centaurea maculosa|Centella asiatica|Centipeda minima|Cephalosphaera usambarensis|Ceratostigma willmottianum|Cereus blanckii|Cereus thurberi|Chaenomeles sinensis|Chaenomeles speciosa|Chamaemelum nobile|Changium smyrnioides|Chelidonium majus|Chenopodium quinoa|Chiococca alba|Chloranthus holostegius|Chlorella pyrenoidosa|Chlorophytum borivilianum|Chlorophytum malayense|Chondrodendron tomentosum|Choriaster granulatus|Chrysanthemum indicum|Chrysanthemum sinense|Chrysanthemum x morifolium|Cibotium barometz|Cicer arietinum|Cichorium glandulosum|Cichorium intybus|Cimicifuga dahurica|Cimicifuga foetida|Cinchona cuprea|Cinnamomum aromaticum|Cinnamomum pedunculatum|Cinnamomum verum|Cirsium setosum|Cis punctifer|Citrullus lanatus|Citrus limon|Citrus maxima|Citrus paradisi|Citrus reticulata|Citrus sinensis|Citrus tangerina|Citrus unshiu|Cladiella australis|Cladogynos orientalis|Cladonia bellidiflora|Cladonia convoluta|Clathria basilana|Clausena indica|Clavariopsis aquatica|Cleome chrysantha|Clerodendranthus spicatus|Clerodendron cyrtophyllum|Clerodendrum bungei|Clerodendrum infortunatum|Clostridium tetanomorphum|Clusia ellipticifolia|Cnidium officinale|Cochliobolus heterostrophus|Coffea arabica|Coffea canephora|Colletotrichum gloeosporioides|Commelina communis|Commiphora mukul|Conium maculatum|Conocybe siliginea|Conus mus|Conyza blinii|Coprinopsis atramentaria|Cordia leucocephala|Coriandrum sativum|Cornus officinalis|Corydalis crystallina|Crambe tatarica|Crataegus pinnatifida|Crepidotus fulvotomentosus|Crinum asiaticum|Crocus minimus|Crocus sativus|Crossaster papposus|Crotalaria crispata|Crotalaria lachnosema|Croton penduliflorus|Cryptocarya aschersoniana|Cryptocarya infectoria|Cryptosporium pinicola|Cryptotaenia japonica|Cucumis sativus|Cucurbita maxima|Cucurbita moschata|Cucurbita pepo|Cuminum cyminum|Cunonia macrophylla|Curculigo pilosa|Curcuma longa|Cuscuta australis|Cynara cardunculus var. scolymus|Cynometra lujae|Cyrtanthus obliquus|Daphnandra aromatica|Daphne feddei|Datura innoxia|Datura inoxia|Daucus carota|Davallia mariesii|Debregeasia orientalis|Decachaeta ovatifolia|Deguelia hatschbachii|Delphinium cyphoplectrum|Delphinium formosum|Dendronephthya griffini|Desmodium styracifolium|Dichrocephala bicolor|Dictyochaeta simplex|Dictyota spinulosa|Digitalis purpurea|Dioscorea communis|Dioscorea gracillima|Diospyros assimilis|Diospyros eriantha|Dipsacus asper|Dipsacus asperoides|Dipterocarpus dyeri|Dodonaea viscosa|Dolabella californica|Dracaena concinna|Dregea volubilis|Drynaria fortunei|Dumoria heckeli|Durio kutejensis|Durio oxleyanus|Dysosma pleiantha|Echinacea purpurea|Echium rubrum|Eichhornia crassipes|Elaeagnus angustifolia|Eleutherococcus senticosus|Elizabethkingia meningoseptica|Elsholtzia Rugulosa|Elsholtzia ciliata|Elsholtzia rugulosa Hemsl.|Elsholtzia splendens|Embelia parviflora|Embelia schimperi|Empetrum nigrum|Entada africana|Entada polystachya|Entada rheedei|Enterococcus faecalis|Enterococcus faecium|Ephedra lomatolepis|Ephedra sinica|Epilobium hirsutum|Epimedium brevicornu|Epimedium grandiflorum|Epimedium koreanum|Epimedium pubescens|Epimedium sagittatum|Epimedium sempervirens|Epimedium wushanense|Episcia cupreata|Equisetum hiemale|Equisetum hyemale|Equsetum arvense|Eragrostis curvula|Eria anomala|Erica arborea|Erigeron breviscapus|Eriocaulon buergerianum|Eriocaulon sieboldianum|Eriocephalus pauperrimus|Eriogaster lanestris|Eriostemon crowei|Erycibe hainanesis|Erylus trisphaerus|Eryngium yuccifolium|Erysimum leptophyllum|Erythrina melanacantha|Erythrina variegata|Erythrostemon gilliesii|Eschenbachia blinii|Esenbeckia leiocarpa|Ethulia conyzoides|Etlingera elatior|Eucalyptus camaldulensis|Eucalyptus campanulata|Eucommia ulmoides|Euonymus alatus|Euonymus maackii|Eupatorium areolare|Eupatorium argentinum|Eupatorium laevigatum|Eupatorium petiolare|Eupatorium villosum|Euphorbia cattimandoo|Euphorbia hirta|Euphorbia nematocypha|Euphorbia retusa|Evolvulus alsinoides|Falcaria vulgaris|Fallopia multiflora|Faramea salicifolia|Felimida luteorosea|Filicium decipiens|Flemingia rhodocarpa|Flos inulae|Foeniculum vulgare|Forsythia intermedia|Forsythia suspensa|Forsythia suspense|Forsythia viridissima|Fragaria vesca|Fragaria x ananassa|Fraxinus chinensis|Fraxinus chinensis subsp. rhynchophylla|Fraxinus ornus|Fraxinus stylosa|Fraxinus szaboana|Fritillaria meleagris|Fritillaria ningguoensis|Fructus mori|Fuligo candida|Fumago vagans|Fumaria indica|Garcinia cambogia|Garcinia multiflora|Garcinia scortechinii|Gardenia jasminoides|Gardenia thailandica|Gardenia tubifera|Gaylussacia baccata|Gelonium aequoreum|Gentiana olivieri|Gerbera asplenifolia|Ginkgo biloba|Glechoma grandis|Glechoma longituba|Gleditsia caspica|Gleditsia japonica|Gleditsia sinensis|Glehnia littoralis|Glycine max|Gnetum cleistostachyum|Gnetum montanum|Gossypium barbadense|Gracilaria textorii|Guatteria boliviana|Gymnema sylvestre|Gymnocalycium schickendantzii|Haematoxylon brasiletto|Haplopappus deserticola|Haplophyllum obtusifolium|Haplophyllum ramosissimum|Harpagophytum procumbens|Hedychium villosum|Helianthopsis microphylla|Helianthus annuus|Helichrysum acutatum|Helichrysum mixtum|Helichrysum tenuifolium|Heliopsis longipes|Hemerocallis fulva|Hemiphragma heterophyllum|Hemizonia congesta|Hendersonula toruloidea|Herba acalyphae|Herba artemisiae scopariae|Herba cichorii|Herba cirsii japonici|Herba dracocephali tangutici|Herba glechomae|Herba meconpsis integrifoliae|Herba serissae|Herba seu radix cirsii japonici|Hertia cheirifolia|Hesperocyparis arizonica|Hibiscus sabdariffa|Hibiscus taiwanensis|Hippophae rhamnoides|Hoffmannia strigillosa|Homo sapiens|Houttuynia cordata|Humata pectinata|Humulus lupulus|Humulus scandens|Hydrolithon reinboldii|Hypericum laricifolium|Hypericum perforatum|Hypericum styphelioides|Hyphear tanakae|Hyssopus officinalis|Iberis sempervirens|Idea leuconoe|Igernella notabilis|Ilex chinensis|Ilex dumosa|Illicium verum|Ilyonectria destructans|Impatiens edgeworthii|Impatiensbalsamina|Imperata cylindrica var. major|Inonotus obliquus|Inula britannica|Inula helenium|Inula japonica|Ipomoea cairica|Ipomoea purpurea|Ircinia aruensis|Isatis tinctoria|Isodon amethystoides|Isodon lihsienensis|Isodon lophanthoides|Isodon lophanthoides var. gerardiana|Isodon rubescens|Isophysis tasmanica|Jania rubens|Jasonia candicans|Jateorhiza palmata|Juglans regia|Juniperus brevifolia|Juniperus rigida var. conferta|Kali turgidum|Kandelia candel|Klaseopsis chinensis|Kopsia albiflora|Kopsia grandifolia|Lactuca sativa|Lasianthus fordii|Lasianthus wallichii|Lasiosiphon kraussianus|Lathyrus spp.|Latrunculia magnifica|Laurencia mariannensis|Laurencia saitoi|Lavandula pedunculata|Ledebouria socialis|Lemaireocereus griseus|Lemaireocereus longispinus|Leptolaena diospyroidea|Leptolaena pauciflora|Lespedeza bicolor|Liatris gracilis|Licaria chrysophylla|Ligularia intermedia|Ligusticum chuanxiong|Ligusticum sinense|Lilium brownii|Lilium brownii f. e. brown var. colchesteri wils|Lilium lancifolium|Lilium pumilum|Lindera umbellata|Linum usitatissimum|Liparis keitaoensis|Liriodendron tulipifera|Lithospermum erythrorhizon|Litsea konishii|Llex chinensis|Lomandra hastilis|Lonchocarpus laxiflorus|Lonicera confusa|Lonicera confuse|Lonicera dasystyla|Lonicera fulvotomentosa|Lonicera hypoglauca|Lonicera japonica|Lonicera macranthoides|Lonicera similis|Lophatherum gracile|Lotus corniculatus|Lotus japonicus|Lychnophora columnaris|Lycium barbarum|Lycium chinense|Lycogala epidendrum|Lycopus europaeus|Lycopus lucidus|Lygodium japonicum|Lysiana subfalcata|Lythrum salicaria|Macaranga peltata|Mahonia simonsii|Mallotus stenanthus|Malus domestica|Malus pumila|Mantella aurantiaca|Matricaria aurea|Matricaria matricarioides|Matricaria recutita|Maytenus guianensis|Medicago sativa|Melaleuca cuticularis|Melia azedarach|Melia azedarach var. toosendan|Melibe leonina|Melilotus officinalis|Melissa officinalis|Mentha arvensis|Mentha canadensis|Mentha haplocalyx|Mentha piperita|Mentha piperitae|Mentha spicata|Mentha x piperita|Mercurialis leiocarpa|Merendera sobolifera|Metasequoia glyptostroboides|Millettia erythrocalyx|Mimosa pudica|Monascus pilosus BCRC38072|Monilinia fructicola|Monomeria barbata|Monsonia senegalensis|Morella rubra|Morinda morindoides|Morus alba|Morus yunnanensis|Mosla chinensis|Murraya exotica|Murraya paniculata|Murraya paniculata var. exotica|Mus musculus|Mycobacterium leprae|Myristica fragrans|Myxococcus stipitatus|Nardostachys jatamansi|Negombata magnifica|Nelumbo nucifera|Neolentinus lepideus|Neolitsea pulchella|Neolitsea sericea|Nepenthes thorelii|Nicotiana gossei|Nicotiana tabacum|Nidus vespae|Nostoc spongiaeforme|Notholaena dealbata|Ochradenus baccatus|Ocimum basilicum|Ocimum gratissimum|Odontites vernus subsp. serotinus|Oenothera speciosa|Olea europaea|Olearia axillaris|Oncorhynchus keta|Onobrychis arenaria|Onobrychis kachetica|Ononis vaginalis|Onopordum acanthium|Onopordum alexandrinum|Ophelia bicornis|Ophioplocus japonicus|Ophiorrhiza kuroiwae|Oricia gabonensis|Origanum majorana|Origanum vulgare|Origanum x majoricum|Ormosia hosiei|Ornithoglossum viride|Orobanche coerulescens|Orobanche pycnostachya|Orthosiphon stamineus|Oryza sativa|Osteospermum muricatum|Othonna sedifolia|Pachyelasma tessmannii|Pachygone pubescens|Paeonia lactiflora|Paeonia rockii|Pajanelia multijuga|Palmaria palmata|Panax innovans|Pancratium sickenbergeri|Papaver somniferum|Parablechnum minus|Pastinaca sativa|Patrinia scabiosifolia|Pavia rubra|Pellia endiviaefolia|Pellia epiphylla|Penicillium cinerascens|Peperomia vulcanica|Pericarpium pyri|Perilla frutescens|Perilla frutescens (l.) britt. var. crispa (thunb.) hand.-mazz.|Perilla frutescens var. acuta|Perilla frutescens var.acuta|Peritassa compta|Persea mexicana|Persicaria tinctoria|Pertusaria truncata|Petasites japonicus|Petasites laevigatus|Phaeolus schweinitzii|Phallusia fumigata|Pharbitis nil|Phaseolus vulgaris|Phellinus igniarius|Phellodendron japonicum|Phellodendron japonicum MAXIM|Phleum africanum|Phlomis tuberosa|Phlomis umbrosa|Phlomoides rotata|Phlomoides tuberosa|Phoebe clemensii|Phoenix dactylifera|Physalis edulis|Picradeniopsis oppositifolia|Pimpinella anisum|Pinellia ternata|Pinus halepensis|Pinus thunbergii|Piper regnellii|Pisum sativum|Planchonia grandis|Plantago lanceolata|Plantago lundborgii|Plantago major|Plantago media|Plantago ovata|Plathymenia reticulata|Platycarya strobilacea|Plectranthus nummularius|Pleocarphus revolutus|Pleurophycus gardneri|Pocillopora eydouxi|Podocarpus sellowii|Pogostemon cablin|Polygonum aviculare|Polygonum cuspidatum|Polypodiodes formosana|Polypodium decumanum|Populus angustifolia|Populus pseudosimonii|Populus tomentosa|Porophyllum ruderale|Portulaca oleracea|Posidonia oceanica|Potamogeton malaianus|Potentilla discolor|Premna tomentosa|Preussia aemulans|Primula denticulata|Prorocentrum micans|Prunella vulgaris|Prunus armeniaca|Prunus avium|Prunus domestica|Prunus mume|Prunus persica|Prunus serrulata var. lannesiana|Pseudocyphellaria hirsuta|Pseuduvaria indochinensis|Psiadia dentata|Psora corallina|Psorothamnus spinosus|Pteridium esculentum|Pteris multifida|Pteris semipinnata|Pteris setuloso-costulata|Pterocarpus officinalis|Pterocaulon rugosum|Pterocaulon virgatum|Pteromys volans|Pueraria phaseoloides|Pulsatilla koreana|Pulveroboletus retipes|Punica granatum|Pyrrosia sheareri|Pyrus communis|Pyxine coccifera|Rabdosia excisa|Radix cirsii japonici|Ranunculus baudotii|Ranunculus sardous|Ranzania japonica|Rapanea lancifolia|Raphanus sativus|Rauvolfia tetraphylla|Reseda muricata C.Presl.|Rhabdia lycioides|Rhabdonia verticillata|Rhaponticum carthamoides|Rheedia acuminata|Rheum coreanum|Rheum moorcroftianum|Rheum officinale|Rheum palmatum|Rheum rhabarbarum|Rheum tanguticum|Rhinella marina|Rhizoma fagopyri cymosi|Rhodiola crenulata (HOOK.f.et Thoms.) H.OHBA|Rhodiola quadrifida|Rhodiola sachalinensis|Rhodiola sacra|Rhodobacter sphaeroides|Rhododendron dauricum|Ribes nigrum|Ribes sanguineum|Ritterella rubra|Roemeria carica|Roemeria dodecandra|Rosa chinensis|Rosa rugosa|Rosmarinus officinalis|Rothmannia wittii|Rubia tetragona|Rubus chamaemorus|Rubus chingii|Rubus coreanus|Rubus foliolosus|Rubus idaeus|Sagittaria sagittifolia|Salvia albimaculata|Salvia bowleyana|Salvia calycina|Salvia chinensis|Salvia hispanica|Salvia horminum|Salvia limbata|Salvia miltiorrhiza|Salvia officinalis|Salvia plebeia|Salvia prionitis|Salvia przewalskii|Salvia sonchifolia|Salvia triloba|Salvinia molesta D.S.Mitch.|Sanicula europaea|Sapium sebiferum|Sarcandra glabra|Sarcolaeana multiflora|Sasa paniculata|Satureja montana|Sauromatum giganteum|Saussurea amara|Saussurea involucrata|Saussurea superba|Saussurea triangulata|Schizanthus tricolor|Schizonepeta tenuifolia|Schumanniophyton magnificum|Scorzonera pseudodivaricata|Scrophularia buergeriana|Scutellaria albida subsp.albida|Scutellaria nepetoides|Secale cereale|Sedum forsteri|Sedum takesimense Nakai|Selaginella pulvinata|Selaginella tamariscina|Senecio callosus|Senecio grandiflorus|Senecio scandens|Shigella dysenteriae|Sia ferox|Sideritis arborescens|Sideritis catillaris|Sideritis euboea|Simarouba glauca|Simsia foetida|Sinapis alba|Siphonaria capensis|Siphula decumbens|Sisyrinchium californicum|Smilax china|Smilax glabra|Smilax sieboldi|Solanum aculeatissimum|Solanum campaniforme|Solanum habrochaites|Solanum lycopersicum|Solanum melongena|Solanum neorickii|Solanum nigrum|Solanum olgae|Solanum parviflorum|Solanum pennellii|Solanum pimpinellifollium|Solanum pseudoquina|Solanum tuberosum|Solidago altissima L.|Solidago decurrens|Solidago virgaurea|Solidago virgaurea l. var. leiocarpa (benth.) a. gray|Solidago virgaurea var. leiocarpa|Solidago virgaurea var.leiocarpa|Sophora flavescens|Sorbus tianschanica|Sordaria araneosa|Spartium junceum|Sphaeranthus confertifolius|Sphaerophorus fragilis|Spina gleditsiae|Spinacia oleracea|Stachybotrys parvispora|Stachys chinensis|Stauntonia obovatifoliola|Stellaria delavayi|Stephania elegans|Stephania succifera|Stevia salicifolia|Stilpnopappus pickelii|Streptococcus pneumoniae|Streptomyces PM9|Streptomyces baarnensis|Streptomyces cellulosae TES17|Streptomyces ehimensis|Streptomyces inusitatus|Streptomyces lateritius|Struthiopteris amabilis|Struthiopteris niponica|Swertia swertopsis|Symphyocladia latiuscula|Syncarpia hillii|Syringa pinnafolia|Syzygium aromaticum|Syzygium polycephaloides|Tagetes lucida|Talaromyces avellaneus|Tambja ceutae|Tanacetum parthenium|Taraxacum borealisinense|Taraxacum coreanum|Taraxacum formosanum|Taraxacum mongolicum|Taraxacum obovatum|Taraxacum officinale|Taraxacum platycarpum|Taraxacum sinicum|Taxus baccata|Taxus brevifolia|Tephrosia candida|Tephrosia purpurea|Tethya amamensis|Tetragonia tetragonioides|Tetrapanax papyrifer|Tetrapleura tetraptera|Tetraria capillaris|Teucrium alyssifolium|Teucrium cossonii|Teucrium pernyi|Thelocactus bicolor|Theonella conica|Thermoplasma acidophilum|Thiocystis gelatinosa|Thuja articulata|Thuja dolabrata|Thymus quinquecostatus|Thymus vulgaris|Tolypothrix tenuis|Toxicodendron vernicifluum|Trachelospermum asiaticum|Trachelospermum jasminoides|Trichoderma koningi|Trichoderma longibrachiatum|Tricholoma columbetta|Trigonella foenum-graecum|Trimusculus conica|Triticum aestivum|Triticum durum|Tropaeolum majus|Tsuga chinensis|Turnera ulmifolia|Turraea nilotica|Tussilago farfara|Typha domingensis P.|Ulex parviflorus|Uncaria macrophylla|Uncaria rhynchophylla|Uncaria sinensis|Urtica dioica|Usnea undulata|Utricularia australis|Uvaria acuminatissima|Uvaria klaineana|Vaccinium alaskaense|Vaccinium angustifolium|Vaccinium corymbosum|Vaccinium deliciosum|Vaccinium macrocarpon|Vaccinium myrtillus|Vaccinium ovatum|Vaccinium oxycoccos|Vaccinium parvifolium|Vaccinium uliginosum|Vaccinium vitis-idaea|Vachellia pennatula|Valeriana jatamansi|Valeriana jatamansii|Valeriana officinalis|Vandopsis lissochiloides|Vellozia nanuzae|Vepris glomerata|Vepris louisii|Verbena officinalis|Vernonia arbor|Vernonia fagifolia|Vernonia lanuginosa|Vernonia serratuloides|Viburnum lantana|Viburnum sieboldi|Vicia sativa|Vigna angularis|Vigna umbellata|Virgilia divaricata|Virola venosa|Viscum coloratum|Vitex limonifolia|Vitex negundo|Vitis vinifera|Waltheria americana|Westiella intricata|Widely distributed in plant|Woodwardia orientalis|Woodwardia prolifera|Xanthium sibiricum|Xanthium strumarium|Xanthoparmelia tinctina|Xenoacremonium recifei|Zanthoxylum myriacanthum|Zea mays|Zephyranthes carinata|Zingiber officinale|Ziziphus jujuba|hedyotis scandens

>  <collections>  (161) 
ANPDB|Australian natural products|BIOFACQUIM|CMAUP (cCollective molecular activities of useful plants)|ChEBI NPs|ChemSpider NPs|ConMedNP|DrugBankNP|EMNPD|ETM (Ethiopian Traditional Medicine) DB|Exposome-explorer|FooDB|GNPS (Global Natural Products Social Molecular Networking)|HIM (Herbal Ingredients in-vivo Metabolism database)|HIT (Herbal Ingredients Targets)|InPACdb|Indofine Chemical Company|InflamNat|KNApSaCK|Latin America dataset|Mitishamba database|NANPDB (Natural Products from Northern African Sources)|NPACT|NPASS|NPCARE|NPEdia|NuBBEDB|Phenol-explorer|Phyto4Health|PubChem NPs|ReSpect|SANCDB|Specs Natural Products|StreptomeDB|Super Natural II|TCMDB-Taiwan (Traditional Chinese Medicine database)|TCMID (Traditional Chinese Medicine Integrated Database)|TIPdb (database of Taiwan indigenous plants)|UEFS (Natural Products Databse of the UEFS)|UNPD (Universal Natural Products Database)|VietHerb|Watermelon|p-ANAPL

>  <dois>  (161) 
10.1002/elan.200403102|10.1007/BF02977770|10.1007/s00425-015-2460-8|10.1007/s11130-020-00822-2|10.1007/s12263-007-0067-9|10.1016/0031-9422(91)85077-D|10.1016/S0963-9969(99)00095-2|10.1016/j.bmcl.2012.12.077|10.1016/j.bmcl.2013.12.006|10.1016/j.bmcl.2015.02.048|10.1016/j.chroma.2014.04.007|10.1016/j.foodchem.2009.03.042|10.1016/j.foodchem.2009.07.010|10.1016/j.foodres.2019.108899|10.1016/j.jep.2008.06.005|10.1016/j.jep.2013.06.004|10.1016/j.jfca.2006.05.007|10.1016/j.lwt.2014.11.023|10.1016/j.phytol.2012.03.017|10.1021/acs.jnatprod.0c00756|10.1021/acs.jnatprod.7b00433|10.1021/acs.jnatprod.7b00699|10.1021/acs.jnatprod.8b00638|10.1021/jf1017143|10.1021/jf803911n|10.1021/np020018i|10.1021/np050447r|10.1021/np200479a|10.1021/np4005773|10.1021/np50052a004|10.1021/np800643n|10.1021/np9003195|10.1021/np900593q|10.1021/np9701790|10.1021/np980153o|10.1071/bt9690133|10.1093/carcin/bgn282|10.1093/jn/133.6.1806|10.1093/pcp/pcn183|10.1111/1750-3841.12404|10.1186/bcr752|10.1186/s12906-015-0838-6|10.1186/s12906-015-0873-3|10.1186/s12906-018-2154-4|10.12691/jfnr-2-5-9|10.13005/ojc/300334|10.3390/foods9060770|10.3390/molecules24162945|10.3390/molecules24183212|10.3390/molecules25010011|10.3390/plants11030377|10.3945/jn.109.113613

>  <synonyms>  (161) 
Caffeic acid 1000 microg\/mL in Acetone|3|4-dihydroxycinnamic acid (caffeic acid)|Spectrum_001686|SpecPlus_000528|Prestwick0_000902|Spectrum2_001612|Spectrum4_001694|3|4-dihydroxy cinnamic acid|KBioGR_001988|KBioSS_002166|DivK1c_006624|SPBio_001643|SPBio_002943|CHEMBL3181904|KBio1_001568|KBio2_002166|KBio2_004734|KBio2_007302|HMS1570F06|HMS2097F06|HMS3371E09|HMS3655J20|AKOS025243986|3-(3|4-Dihydroxy-phenyl)-acrylic acid|NCGC00017364-14|NCI60_004400|SY009299|caffeic acid (3|4-dihydroxycinnamic acid)|DB-048344|Q56231106|Caffeic acid|cis-Caffeic acid|trans-caffeate|CAFFEIC ACID natural|Widely distributed in plant|(E)-3-(3|4-dihydroxyphenyl)prop-2-enoic acid

>  <cas>  (161) 
nan

$$$$

     RDKit          2D

 12 12  0  0  0  0  0  0  0  0999 V2000
   -4.0818   -1.2606    0.0000 O   0  0  0  0  0  0  0  0  0  0  0  0
   -3.6020    0.1606    0.0000 C   0  0  0  0  0  0  0  0  0  0  0  0
   -4.5928    1.2868    0.0000 O   0  0  0  0  0  0  0  0  0  0  0  0
   -2.1313    0.4557    0.0000 C   0  0  0  0  0  0  0  0  0  0  0  0
   -1.1404   -0.6704    0.0000 C   0  0  0  0  0  0  0  0  0  0  0  0
    0.3303   -0.3754    0.0000 C   0  0  0  0  0  0  0  0  0  0  0  0
    0.8101    1.0458    0.0000 C   0  0  0  0  0  0  0  0  0  0  0  0
    2.2808    1.3409    0.0000 C   0  0  0  0  0  0  0  0  0  0  0  0
    3.2717    0.2147    0.0000 C   0  0  0  0  0  0  0  0  0  0  0  0
    4.7424    0.5098    0.0000 O   0  0  0  0  0  0  0  0  0  0  0  0
    2.7919   -1.2064    0.0000 C   0  0  0  0  0  0  0  0  0  0  0  0
    1.3212   -1.5015    0.0000 C   0  0  0  0  0  0  0  0  0  0  0  0
  1  2  2  0
  2  3  1  0
  2  4  1  0
  4  5  2  3
  5  6  1  0
  6  7  2  0
  7  8  1  0
  8  9  2  0
  9 10  1  0
  9 11  1  0
 11 12  2  0
 12  6  1  0
M  END
>  <identifier>  (162) 
CNP0255341.0

>  <canonical_smiles>  (162) 
O=C(O)C=CC1=CC=C(O)C=C1

>  <standard_inchi>  (162) 
InChI=1S/C9H8O3/c10-8-4-1-7(2-5-8)3-6-9(11)12/h1-6,10H,(H,11,12)

>  <standard_inchi_key>  (162) 
NGSWKAQJJWESNS-UHFFFAOYSA-N

>  <name>  (162) 
4-hydroxy cinnamic acid

>  <iupac_name>  (162) 
3-(4-hydroxyphenyl)prop-2-enoic acid

>  <annotation_level>  (162) 
5

>  <total_atom_count>  (162) 
20

>  <heavy_atom_count>  (162) 
12

>  <molecular_weight>  (162) 
164.16

>  <exact_molecular_weight>  (162) 
164.04734

>  <molecular_formula>  (162) 
C9H8O3

>  <alogp>  (162) 
1.49

>  <topological_polar_surface_area>  (162) 
57.53

>  <rotatable_bond_count>  (162) 
2

>  <hydrogen_bond_acceptors>  (162) 
2

>  <hydrogen_bond_donors>  (162) 
2

>  <hydrogen_bond_acceptors_lipinski>  (162) 
2

>  <hydrogen_bond_donors_lipinski>  (162) 
2

>  <lipinski_rule_of_five_violations>  (162) 
0

>  <aromatic_rings_count>  (162) 
1

>  <qed_drug_likeliness>  (162) 
0.65

>  <formal_charge>  (162) 
0

>  <fractioncsp3>  (162) 
0.00

>  <number_of_minimal_rings>  (162) 
1

>  <van_der_walls_volume>  (162) 
147.58

>  <contains_sugar>  (162) 
False

>  <contains_ring_sugars>  (162) 
False

>  <contains_linear_sugars>  (162) 
False

>  <murcko_framework>  (162) 
c1ccccc1

>  <np_likeness>  (162) 
0.84

>  <chemical_class>  (162) 
Cinnamic acids and derivatives

>  <chemical_sub_class>  (162) 
Hydroxycinnamic acids and derivatives

>  <chemical_super_class>  (162) 
Phenylpropanoids and polyketides

>  <direct_parent_classification>  (162) 
Hydroxycinnamic acids

>  <np_classifier_pathway>  (162) 
Shikimates and Phenylpropanoids

>  <np_classifier_superclass>  (162) 
Phenylpropanoids (C6-C3)

>  <np_classifier_class>  (162) 
Cinnamic acids and derivatives

>  <np_classifier_is_glycoside>  (162) 
False

>  <organisms>  (162) 
Acacia adunca|Acacia salicina|Acanthaster planci|Acanthophyllum sordidum|Acer carpinifolium|Achillea lycaonica|Achillea wilhelmsii|Achlys triphylla|Aconitum carmichaelii|Aconitum habaense|Aconitum japonicum|Aconitum tanguticum|Acrocarpia paniculata|Actaea racemosa|Actinidia chinensis|Actinidia deliciosa|Adenia globosa|Adiantum lunulatum|Aesculus hippocastanum|Aglaia grandis|Ailanthus altissima|Alangium platanifolium|Albizia Julibrissin|Albizia gummifera|Albizia procera|Alcea rosea|Alectoria ochroleuca|Alkanna cappadocica|Allium cepa|Allium sativum|Allium schoenoprasum|Allium turcomanicum|Aloe africana|Aloe ferox|Aloe microstigma|Aloe spicata|Aloe vera|Alpinia blepharocalyx|Alstonia spathulata|Alternanthera bettzickiana|Alternaria kikuchiana|Althaea nudiflora|Althaea rosea|Amaranthus hypochondriacus|Amathia pinnata|Amsinckia tessellata|Anacystis montana|Ananas comosus|Anaphalis araneosa|Andrographis elongata|Andrographis viscosula|Anemone tomentosa|Anethum graveolens|Annona cornifolia|Annona muricata|Anodendron affine|Anolis lineatopus|Anthocercis albicans|Aphelandra chamissoniana|Apis mellifera|Apis mellifera ligustica|Apis species|Aplidium multiplicatum|Aplophyllum pedicellatum|Arabidopsis thaliana|Arachis hypogaea|Araucaria angustifolia|Aristolochia contorta|Aristolochia debilis|Aristolochia manshuriensis|Artemisia anomala|Artemisia assoana|Artemisia dentata|Artemisia giraldii|Artemisia kurramensis|Artemisia ludoviciana subsp. mexicana|Artemisia pedemontana|Artemisia porrecta|Artemisia schimperi|Artocarpus heterophyllus|Aspalathus linearis|Aspergillus mutabilis|Asperula odora|Asterias nipon|Asterospicularia laurae|Astragalus sempervirens|Atalantia racemosa|Atylosia trinervia|Aucuba chinensis|Aurelia aurita|Avena sativa|Axinella agnata|Azotobacter agilis|Bacillus subtilis|Backhousia angustifolia|Bacterium from|Balanophora abbreviata B1|Baphia bancoensis|Begonia nantoensis|Benkara malabarica|Beta vulgaris|Beta vulgaris L. var. saccharifera|Betonica officinalis|Bhesa nitidissima|Bishovia boliviensis|Bistorta vivipara|Blastochloris viridis|Blighia welwitschii|Boehmeria nivea|Bohadschia vitiensis|Boschniakia rossica|Bougainvillea glabra|Brassica oleracea|Brassica oleracea var. sabauda|Breonia chinensis|Briareum violacea|Brickellia vernicosa|Bryopsis pennata|Buddleja cordata|Bulbophyllum protractum|Bulbophyllum vaginatum|Buphane fischeri|Bursera tonkinensis|Calea cuneifolia|Calligonum leucocladum|Calostephane divaricata|Calvatia lilacina|Calycanthus floridus|Calystegia pubescens|Campylotropis hirtella|Cananga latifolia|Capsicum annuum|Caragana aurantiaca|Carduus crispus|Carica dodecaphylla|Carthamus tinctorius|Catalpa ovata|Catunaregam tomentosa|Cedrela salvadorensis|Cedronella canariensis|Centaurea huber-morathii|Centella asiatica|Cephalaria transsylvanica|Ceropegia dichotoma|Cestrum nocturnum|Chaenomeles sinensis|Chamaecyparis formosensis|Chelidonium majus|Chenopodium album|Chenopodium formosanum|Chrozophora prostrata|Chrysanthemum boreale|Chrysanthemum sinense|Chrysosplenium americanum|Cichorium glandulosum|Cichorium intybus|Cinamomum cassia|Cinnamomum aromaticum|Cinnamomum verum|Cirsium japonicum|Cirsium setosum|Cis punctifer|Citrus aurantium|Citrus limon|Citrus maxima|Citrus natsudaidai|Citrus paradisi|Citrus reticulata|Citrus sinensis|Citrus sp.|Citrus tangerina|Citrus trifoliata|Citrus unshiu|Clathria basilana|Cleistopholis staudtii|Cleome icosandra|Coffea arabica|Coffea canephora|Coix lacryma-jobi|Colletotrichum gloeosporioides|Colpomenia sinuosa|Colubrina faralaotra subsp.trichocarpa.|Commelina communis|Conocybe siliginea|Conoideocrella luteorostrata|Coprinopsis atramentaria|Coprosma lucida|Coriandrum sativum|Cornus officinalis|Cortex lycii radicis|Cotyledon secunda|Cowania mexicana|Crambe tatarica|Crataegus pinnatifida|Cremastra appendiculata|Crinum moorei|Crocus minimus|Crocus sativus|Crotalaria candicans|Croton penduliflorus|Cryptosporium pinicola|Cucumis sativus|Cucurbita maxima|Cucurbita moschata|Cunninghamia lanceolata var. konishii|Cunonia macrophylla|Curculigo pilosa|Curcuma domestica|Curcuma longa|Cuscuta australis|Cussonia bancoensis|Cynoglossum creticum|Cynometra lujae|Cyperus esculentus|Cyperus rotundus|Cyperus rotundus L.|Cypripedium calceolus|Cystoseira caespitosa|Daphne feddei|Daucus carota|Daviesia latifolia|Dendrobium loddigesii|Dendrodoris tuberculosa|Dermolepida albohirtum|Diaphus coeruleus|Dioscorea villosa|Diospyros canaliculata|Diospyros chamaethamnus|Diospyros eriantha|Diospyros glaucifolia|Dipteryx odorata|Distephanus angulifolius|Dracocephalum moldavica|Dracocephalum multicaule|Drechslera avenae|Dumortiera hirsuta|Dysidea tupha|Echinacea pallida|Echinacea purpurea|Elephantopus tomentosus|Elettaria cardamomum|Eleutherococcus senticosus|Eleutherococcus sessiliflorus|Elsholtzia ciliata|Elymnias thryallis|Entada rheedei|Ephedra equisetina|Epilobium hirsutum|Epimedium sagittatum|Episcia cupreata|Equsetum arvense|Eremanthus crotonoides|Eria japonica|Eritrichium sericeum|Erylus lendenfeldi|Erylus trisphaerus|Erythrina americana|Eucalyptus apodophylla|Eucalyptus globulus subsp. bicostata|Eucalyptus kitsoni|Eucalyptus maculata|Eucalyptus maidenii|Eucalyptus melliodora|Eucalyptus rubida|Eucalyptus sideroxylon|Eucalyptus urophylla|Euclea crispa|Eucommia ulmoides|Eupatorium areolare|Eupatorium fortunei|Eurya japonica|Euryops algoensis|Eutrema japonicum|Evernia vulpina|FOOD SAKE|Fagopyrum dibotrys|Fagopyrum esculentum|Falcaria vulgaris|Fallopia multiflora|Felimida luteorosea|Ficus beecheyana|Flammulina velutipes|Flos inulae|Foeniculum vulgare|Fragaria x ananassa|Fritillaria ningguoensis|Fritillaria persica|Galium dasypodum|Garcinia cambogia|Gardenia jasminoides|Gasterosteus aculeatus|Gaylussacia baccata|Ginkgo biloba|Gleditsia caspica|Glycine max|Glycosmis macrophylla|Gnetum latifolium|Gomortega keule|Goniothalamus malayanus|Gracilaria textorii|Gymnadenia conopsea R.BR.|Gymnosporia diversifolia|Gynerium sagittatum|Gypsophila perfoliata|Haematoxylon brasiletto|Haliclona tubifera|Halimeda discoidea|Hansenia forbesii|Hansenia weberbaueriana|Haplophyllum ramosissimum|Hedysarum connatum|Helianthus annuus|Helianthus tuberosus|Helichrysum dendroideum|Helichrysum lepidissimum|Helichrysum mixtum|Helipterum roseum|Helleborus multifidus|Herba meconpsis integrifoliae|Hertia cheirifolia|Hibiscus taiwanensis|Hippophae rhamnoides|Hoffmannia strigillosa|Homo sapiens|Hopea utilis|Hortonia floribunda|Humata pectinata|Humulus japonicus|Humulus lupulus|Humulus scandens|Hypericum laricifolium|Hypericum perforatum|Hypericum polyanthemum|Hypericum revolutum|Hypholoma capnoides|Hypselodoris porterae|Idea leuconoe|Ilyonectria destructans|Impatiens edgeworthii|Imperata cylindrica|Inocybe geophylla|Inula britannica|Inula japonica|Io fluvialis|Iotrochota birotulata|Ipomoea digitata|Ipomoea purpurea|Iris ensata|Islaya minor|Jasonia candicans|Juglans regia|Juniperus ashei|Juniperus drupacea|Juniperus formosana|Juniperus rigida var. conferta|Kalanchoe blossfeldiana|Kali turgidum|Keiferia lycopersicella|Kopsia albiflora|Lactarius deliciosus var. deterrimus|Lactuca laciniata|Lactuca sativa|Lampranthus sociorum|Larix laricina|Lasiosiphon kraussianus|Laurencia spectabilis|Lavandula pedunculata|Leathesia nana|Lecidea carpathica|Lemaireocereus griseus|Lens culinaris|Lens esculenta|Lentzea albida|Lepisorus ussuriensis|Leptolaena diospyroidea|Leptolaena pauciflora|Leucopaxillus gentianeus|Leuzea centauroides|Licaria chrysophylla|Lilium brownii|Lilium brownii f. e. brown var. colchesteri wils|Lilium lancifolium|Lilium pumilum|Lindera obtusiloba|Linum usitatissimum|Lippia alba|Liquidambar orientalis|Liriodendron tulipifera|Litsea konishii|Litsea pungens|Litsea salicifolia|Lobophytum schoedei|Lonicera japonica|Luffa aegyptiaca|Lupinus cosentinii Guss.|Lupinus luteus L.|Lychnophora columnaris|Lycium barbarum|Lycium chinense|Lygodium japonicum|Lyophyllum connatum|Lysiana subfalcata|Lysimachia heterogenea|Lysimachia mauritiana|Macaranga peltata|Maize bran|Malus domestica|Malus pumila|Malva silvestris|Mangifera indica|Marrubium anisodon|Marrubium cylleneum|Marrubium velutinum|Martensia denticulata|Medicago sativa|Melanargia galathea|Melia azedarach|Melia azedarach var. toosendan|Melilotus messanensis|Melilotus officinalis subsp. suaveolens|Melilotus suaveolens|Mentha cardiaca|Mentha piperita|Mentha piperitae|Mesembryanthemum expansum|Mexican propolis|Microcos paniculata|Millettia erythrocalyx|Millettia pinnata|Monascus pilosus|Morinda morindoides|Morus alba|Morus bombycis|Mucuna urens|Murdannia triquetra|Mus musculus|Mycobacterium leprae|Myristica fragrans|Naja kaouthia|Nardostachys jatamansi|Nasutitermes ephratae|Nauclea rhynchophylla|Naucleopsis ternstroemiiflora|Negombata magnifica|Nelumbo nucifera|Nicotiana rustica|Nicotiana tabacum|Nostoc spongiaeforme|Notholaena lemmonii|Notholirion hyacinthinum|Notholirion hyacinthium|Notopterygium incisum|Nuphar lutea|Nymphaea caerulea|Ocimum basilicum|Oldenlandia diffusa|Olea europaea|Olearia axillaris|Ononis spinosa|Ononis vaginalis|Ophelia bicornis|Origanum majorana|Origanum vulgare|Ormosia hosiei|Ornithoglossum viride|Oryza sativa|Osmorhiza aristata|Osteospermum muricatum|Ostericum grosseserratum|Othonna sedifolia|Paeonia rockii|Paeonia suffruticosa|Pajanelia multijuga|Panax spinosus|Papaver somniferum|Parablechnum minus|Pastinaca sativa|Pectinia lactuca|Peltostigma guatemalense|Penicillium cyclopium|Penicillium kapuscinskii|Pentaclethra macrophylla|Peperomia duclouxii C. DC.|Peperomia duclouxii C.DC.|Peperomia vulcanica|Periploca sepium|Perithalia caudata|Persicaria orientalis|Pertusaria amara|Pertusaria truncata|Perymenium mendezii|Petasites georgicus|Petasites laevigatus|Petroselinum crispum|Phaeolus schweinitzii|Phalaenopsis cornu-cervi|Pharbitis nil|Phaseolus aureus|Phaseolus lunatus|Phaseolus vulgaris|Phellodendron japonicum MAXIM|Phellopterus littoralis|Phlogacanthus tubiflorus|Phlomis nissolii|Phoebe pittieri|Phoenix dactylifera|Phoenix loureiroi|Phragmites communis|Phyllostachys edulis|Phyllostachys nigra|Physalis edulis|Picea ajanensis|Picea glauca|Picea jezoensis var. jezoensis|Picea mariana|Picea obovata|Piper marginatum|Pisum sativum|Plantago major|Plantago media|Platycarya strobilacea|Plectranthus myrianthus|Pleione bulbocodioides|Pleione yunnanensis|Pleuronectes cynoglossus|Pocillopora eydouxi|Polyalthia stenopetala|Polygonum cuspidatum|Polygonum orientale|Polypodium decumanum|Populus angustifolia|Populus tomentosa|Porodaedalea pini|Porophyllum ruderale|Portulaca oleracea|Premna odorata|Premna tomentosa|Prorocentrum micans|Prunella vulgaris|Prunus armeniaca|Prunus avium|Prunus domestica|Prunus serotina|Pseudoalteromonas luteoviolacea|Pseudocyphellaria aurata|Pseudotsuga japonica|Psychotria serpens|Pteris semipinnata|Pterocarpus officinalis|Pterocaulon virgatum|Pulveroboletus retipes|Pulvinula constellatio|Punica granatum|Pycnandra acuminata|Pyropia tenera|Pyrus communis|Quercus robur|Ranunculus baudotii|Ranunculus ternatus|Ranzania japonica|Rapanea lancifolia|Raphanus sativus|Rauvolfia vomitoria|Rhabdonia verticillata|Rhaponticum carthamoides|Rheum rhabarbarum|Rhinella icterica|Rhizoma curcumae|Rhodiola crenulata|Rhodiola rosea|Rhodiola sachalinensis|Rhodiola semenovii|Rhododendron dauricum|Ribes nigrum|Ribes rubrum|Ribes sanguineum|Roemeria refracta|Rosa chinensis|Rosa rugosa|Rosa transmorrisonensis|Rosmarinus officinalis|Rothmannia wittii|Rubia tetragona|Rubus chamaemorus|Rubus chingii|Rubus coreanus|Rubus idaeus|Rumex chalepensis|Rumex japonicus|Rumex maritimus|Russula vesca|Sabia japonica|Sabina sargentii|Sagittaria sagittifolia|Salvia hispanica|Salvia officinalis|Salvia parryi|Salvia sessei|Salvia syriaca|Sanghuangporus sp.|Sarcolaeana multiflora|Sasa paniculata|Sassafras officinalis|Saussurea amara|Scabiosa succisa|Schisandra chinensis|Schizanthus tricolor|Scorzonera pseudodivaricata|Scrophularia buergeriana|Scrophularia ningpoensis|Scutellaria albida subsp.albida|Scutellaria amoena|Scutellaria barbata|Secale cereale|Sedum forsteri|Senecio scandens|Senna spectabilis|Setosphaeria turcica|Sia ferox|Sideritis euboea|Siegesbeckia pubescens|Sigesbeckia glabrescens|Sinularia depressa|Sisyrinchium californicum|Solanum aculeatissimum|Solanum laxum|Solanum lycopersicum|Solanum melongena|Solanum nigrum|Solanum tuberosum|Sonneratia caseolaris|Sorbus tianschanica|Sparganium stoloniferum|Sphaeranthus confertifolius|Spinacia oleracea|Spiraea formosana|Stachys chinensis|Stephania elegans|Stephania sasakii|Stephania zippeliana|Stereospermum zenkeri|Stigma croci|Stipa vaseyi|Streptomyces|Streptomyces argenteolus|Streptomyces avermectinius|Streptomyces lividans|Streptomyces pentaticus|Streptomyces xanthochromogenes|Strophanthus hispidus|Strychnos henningsii|Styrax benzoin|Styrax japonicus|Styrax tonkinensis|Swertia franchetiana|Swertia swertopsis|Syncarpia hillii|Syringa oblata|Syzygium aromaticum|Tadehagi triquetrum|Talaromyces avellaneus|Talaromyces variabilis|Tanacetum balsamitoides|Tanacetum nubigenum|Taraxacum borealisinense|Taraxacum coreanum|Taraxacum formosanum|Taraxacum mongolicum|Taraxacum officinale|Taraxacum platycarpum|Tarchonanthus camphoratus|Taxus baccata|Taxus brevifolia|Tetrapanax papyrifer|Teucrium spinosum|Thalictrum longistylum|Thea sasanqua|Thymus quinquecostatus|Thymus vulgaris|Tilia argentea|Tilia tomentosa|Tiliacora racemosa|Tolypothrix tenuis|Toxicodendron vernicifluum|Trichoderma koningi|Trifolium alpestre|Trifolium medium|Trifolium pratense|Trifolium pratense L.|Trinia scabra|Triptilion benaventei|Tristania conferta|Triticum aestivum|Triticum durum|Tropaeolum majus|Tsuga chinensis|Turpinia ternata|Typha domingensis P.|Uruparia lanosa|Usnea undulata|Utricularia australis|Vaccinium alaskaense|Vaccinium angustifolium|Vaccinium corymbosum|Vaccinium deliciosum|Vaccinium macrocarpon|Vaccinium myrtillus|Vaccinium ovatum|Vaccinium oxycoccos|Vaccinium parvifolium|Vaccinium uliginosum|Vaccinium vitis-idaea|Vachellia farnesiana|Vepris louisii|Verbascum laxum|Verbascum spinosum|Vernonia anisochaetoides|Vernonia cistifolia|Vernonia lanuginosa|Vernonia scorpioides|Veronica polita|Viburnum furcatum|Viburnum urceolatum|Vicia faba|Vigna angularis|Vigna radiata|Vigna umbellata|Vigna umbeuata|Vigna unguiculata|Viguiera incana|Viguiera oblongifolia|Virgilia divaricata|Vitis vinifera|Vittaria anguste-elongata|Wasabia japonica|Wikstroemia retusa|Woodsia manchuriensis|Xanthorrhoea preissii|Xenoacremonium recifei|Xylocarpus granatum|Xyris pterygoblephara|Zanthoxylum myriacanthum|Zanthoxylum tetraspermum|Zea mays|Zingiber officinale|Ziziphus jujuba|brazilian green propolis|dracocephalum ruyschiana

>  <collections>  (162) 
ANPDB|AfroDB|AfroMalariaDB|Australian natural products|BIOFACQUIM|CMAUP (cCollective molecular activities of useful plants)|ChEBI NPs|ChemSpider NPs|ConMedNP|DrugBankNP|EMNPD|ETM (Ethiopian Traditional Medicine) DB|Exposome-explorer|FooDB|GNPS (Global Natural Products Social Molecular Networking)|HIM (Herbal Ingredients in-vivo Metabolism database)|HIT (Herbal Ingredients Targets)|InterBioScreen Ltd|KNApSaCK|Latin America dataset|Marine Natural Products|Mitishamba database|NANPDB (Natural Products from Northern African Sources)|NPASS|NPCARE|NPEdia|NuBBEDB|Phenol-explorer|Phyto4Health|PubChem NPs|ReSpect|SANCDB|StreptomeDB|Super Natural II|TCMDB-Taiwan (Traditional Chinese Medicine database)|TCMID (Traditional Chinese Medicine Integrated Database)|TIPdb (database of Taiwan indigenous plants)|UNPD (Universal Natural Products Database)|VietHerb|p-ANAPL

>  <dois>  (162) 
10.1002/cbdv.201100021|10.1002/pca.924|10.1007/s11130-012-0286-0|10.1016/S0031-9422(97)00370-1|10.1016/j.arabjc.2013.12.011|10.1016/j.bmc.2007.01.035|10.1016/j.bmc.2009.07.016|10.1016/j.bmc.2011.07.060|10.1016/j.bmcl.2015.01.034|10.1016/j.foodchem.2020.128444|10.1016/j.foodres.2019.108899|10.1016/j.jep.2008.06.005|10.1016/j.jfca.2003.09.013|10.1016/j.phytochem.2004.08.051|10.1016/j.phytol.2012.03.017|10.1016/s0031-9422(00)85269-3|10.1021/acs.jnatprod.0c00551|10.1021/acs.jnatprod.0c00756|10.1021/acs.jnatprod.6b00582|10.1021/acs.jnatprod.8b01086|10.1021/jf9810261|10.1021/np000496y|10.1021/np070104o|10.1021/np300576w|10.1021/np300609u|10.1021/np50057a010|10.1021/np900625w|10.1021/np900772m|10.1038/nbt.2488|10.1071/ch9580372|10.1071/ch9740331|10.1093/jn/133.6.1806|10.1093/pcp/pcn183|10.1111/1750-3841.12404|10.1186/1475-2859-12-45|10.13005/ojc/300334|10.1590/S0212-16112011000600015|10.3389/fbioe.2015.00116|10.3390/molecules24162945|10.3390/molecules24183212|10.3390/molecules27020483|10.3390/molecules27061860|10.3390/plants11030377|10.3945/jn.109.113613|10.4103/0971-4065.82131

>  <synonyms>  (162) 
CHEBI:36090|2-Propenoic acid| 3-(4-hydroxyphenyl)-| (2Z)-|4hydroxycinnamic acid|Enamine_005378|Epitope ID:116879|DTXSID6064660|NGSWKAQJJWESNS-UHFFFAOYSA-N|3-(4-hydroxy-phenyl)-acrylic acid|AKOS017269003|SY015618|SY020906|DB-055828|DB-092338|NS00004354|Q27104329|p-Coumaric acid|cis-p-Coumaric acid|4-coumarate|trans-p-Coumaric acid|4-Hydroxycinnamate|(E)-3-(4-hydroxyphenyl)prop-2-enoic acid|trans-hydroxycinnamic acid|MLS001066419|Trans-3-(4'-hydroxyphenyl)-2-propenoic acid|2-propenoic acid|3-(4-hydroxyphenyl)|coumaric acid|(E)-4-hydroxycinnamic acid

>  <cas>  (162) 
nan

$$$$

     RDKit          2D

 18 20  0  0  0  0  0  0  0  0999 V2000
    4.0879    0.7452    0.0000 C   0  0  0  0  0  0  0  0  0  0  0  0
    3.2300   -0.4852    0.0000 C   0  0  0  0  0  0  0  0  0  0  0  0
    3.8666   -1.8434    0.0000 C   0  0  0  0  0  0  0  0  0  0  0  0
    1.7354   -0.3575    0.0000 C   0  0  0  0  0  0  0  0  0  0  0  0
    1.6076   -1.8520    0.0000 O   0  0  0  0  0  0  0  0  0  0  0  0
    0.3772   -0.9941    0.0000 C   0  0  0  0  0  0  0  0  0  0  0  0
   -0.8532   -0.1361    0.0000 C   0  0  0  0  0  0  0  0  0  0  0  0
   -0.9810   -1.6307    0.0000 C   0  0  0  0  0  0  0  0  0  0  0  0
   -0.7254    1.3584    0.0000 C   0  0  0  0  0  0  0  0  0  0  0  0
    0.6328    1.9950    0.0000 C   0  0  0  0  0  0  0  0  0  0  0  0
    1.8632    1.1371    0.0000 C   0  0  0  0  0  0  0  0  0  0  0  0
    3.2214    1.7737    0.0000 O   0  0  0  0  0  0  0  0  0  0  0  0
   -1.9559    2.2163    0.0000 C   0  0  0  0  0  0  0  0  0  0  0  0
   -3.3141    1.5797    0.0000 C   0  0  0  0  0  0  0  0  0  0  0  0
   -3.4418    0.0852    0.0000 C   0  0  0  0  0  0  0  0  0  0  0  0
   -4.8001   -0.5515    0.0000 O   0  0  0  0  0  0  0  0  0  0  0  0
   -2.2114   -0.7728    0.0000 C   0  0  0  0  0  0  0  0  0  0  0  0
   -2.3392   -2.2673    0.0000 C   0  0  0  0  0  0  0  0  0  0  0  0
  1  2  2  0
  2  3  1  0
  4  2  1  1
  4  5  1  0
  6  5  1  6
  6  7  1  0
  7  8  1  1
  7  9  1  0
  9 10  2  0
 10 11  1  0
 11 12  1  6
  9 13  1  0
 13 14  1  0
 14 15  1  0
 15 16  1  6
 15 17  1  0
 17 18  1  1
  6  4  1  0
 17  7  1  0
 11  4  1  0
M  END
>  <identifier>  (163) 
CNP0121623.1

>  <canonical_smiles>  (163) 
C=C(C)[C@@]12O[C@@H]1[C@@]1(C)C(=C[C@@H]2O)CC[C@@H](O)[C@@H]1C

>  <standard_inchi>  (163) 
InChI=1S/C15H22O3/c1-8(2)15-12(17)7-10-5-6-11(16)9(3)14(10,4)13(15)18-15/h7,9,11-13,16-17H,1,5-6H2,2-4H3/t9-,11+,12-,13+,14+,15-/m0/s1

>  <standard_inchi_key>  (163) 
CHWPMFMUQATVNK-IUCIJCHOSA-N

>  <name>  (163) 
Dihydrosporogen AO-1

>  <iupac_name>  (163) 
(1~{a}~{S},2~{S},6~{R},7~{R},7~{a}~{R},7~{b}~{R})-1~{a}-isopropenyl-7,7~{a}-dimethyl-2,4,5,6,7,7~{b}-hexahydronaphtho[1,2-b]oxirene-2,6-diol

>  <annotation_level>  (163) 
5

>  <total_atom_count>  (163) 
40

>  <heavy_atom_count>  (163) 
18

>  <molecular_weight>  (163) 
250.34

>  <exact_molecular_weight>  (163) 
250.15689

>  <molecular_formula>  (163) 
C15H22O3

>  <alogp>  (163) 
1.80

>  <topological_polar_surface_area>  (163) 
52.99

>  <rotatable_bond_count>  (163) 
1

>  <hydrogen_bond_acceptors>  (163) 
3

>  <hydrogen_bond_donors>  (163) 
2

>  <hydrogen_bond_acceptors_lipinski>  (163) 
3

>  <hydrogen_bond_donors_lipinski>  (163) 
2

>  <lipinski_rule_of_five_violations>  (163) 
0

>  <aromatic_rings_count>  (163) 
0

>  <qed_drug_likeliness>  (163) 
0.55

>  <formal_charge>  (163) 
0

>  <fractioncsp3>  (163) 
0.73

>  <number_of_minimal_rings>  (163) 
3

>  <van_der_walls_volume>  (163) 
244.02

>  <contains_sugar>  (163) 
False

>  <contains_ring_sugars>  (163) 
False

>  <contains_linear_sugars>  (163) 
False

>  <murcko_framework>  (163) 
O1C2CC=C3CCCCC3C12

>  <np_likeness>  (163) 
3.48

>  <chemical_class>  (163) 
Prenol lipids

>  <chemical_sub_class>  (163) 
Sesquiterpenoids

>  <chemical_super_class>  (163) 
Lipids and lipid-like molecules

>  <direct_parent_classification>  (163) 
Sesquiterpenoids

>  <np_classifier_pathway>  (163) 
Terpenoids

>  <np_classifier_superclass>  (163) 
Sesquiterpenoids

>  <np_classifier_class>  (163) 
Eremophilane sesquiterpenoids

>  <np_classifier_is_glycoside>  (163) 
False

>  <organisms>  (163) 
Penicillium copticola|Penicillium sp. BL27-2|Penicillium sp. G1-a14

>  <collections>  (163) 
BIOFACQUIM|Latin America dataset|NPASS|NPAtlas

>  <dois>  (163) 
10.1021/np5005328|10.1021/np5009224|10.1584/jpestics.14.223

>  <synonyms>  (163) 
CHEMBL3581339|CHEBI:202662|(1aS|2S|6R|7R|7aR|7bR)-7|7a-dimethyl-1a-prop-1-en-2-yl-2|4|5|6|7|7b-hexahydronaphtho1|2-boxirene-2|6-diol|Dihydrosporogen AO-1

>  <cas>  (163) 
nan

$$$$

     RDKit          2D

 12 12  0  0  0  0  0  0  0  0999 V2000
   -3.5562   -0.5534    0.0000 C   0  0  0  0  0  0  0  0  0  0  0  0
   -2.1019   -0.9207    0.0000 O   0  0  0  0  0  0  0  0  0  0  0  0
   -1.0567    0.1552    0.0000 C   0  0  0  0  0  0  0  0  0  0  0  0
   -1.4658    1.5983    0.0000 C   0  0  0  0  0  0  0  0  0  0  0  0
   -0.4205    2.6742    0.0000 C   0  0  0  0  0  0  0  0  0  0  0  0
    1.0338    2.3069    0.0000 C   0  0  0  0  0  0  0  0  0  0  0  0
    1.4429    0.8638    0.0000 C   0  0  0  0  0  0  0  0  0  0  0  0
    2.8973    0.4965    0.0000 O   0  0  0  0  0  0  0  0  0  0  0  0
    0.3977   -0.2121    0.0000 C   0  0  0  0  0  0  0  0  0  0  0  0
    0.8068   -1.6552    0.0000 C   0  0  0  0  0  0  0  0  0  0  0  0
    2.2611   -2.0225    0.0000 O   0  0  0  0  0  0  0  0  0  0  0  0
   -0.2385   -2.7311    0.0000 O   0  0  0  0  0  0  0  0  0  0  0  0
  1  2  1  0
  2  3  1  0
  3  4  2  0
  4  5  1  0
  5  6  2  0
  6  7  1  0
  7  8  1  0
  7  9  2  0
  9 10  1  0
 10 11  2  0
 10 12  1  0
  9  3  1  0
M  END
>  <identifier>  (164) 
CNP0192684.0

>  <canonical_smiles>  (164) 
COC1=CC=CC(O)=C1C(=O)O

>  <standard_inchi>  (164) 
InChI=1S/C8H8O4/c1-12-6-4-2-3-5(9)7(6)8(10)11/h2-4,9H,1H3,(H,10,11)

>  <standard_inchi_key>  (164) 
AAUQLHHARJUJEH-UHFFFAOYSA-N

>  <name>  (164) 
2-Hydroxy-6-methoxybenzoic acid

>  <iupac_name>  (164) 
2-hydroxy-6-methoxy-benzoic acid

>  <annotation_level>  (164) 
5

>  <total_atom_count>  (164) 
20

>  <heavy_atom_count>  (164) 
12

>  <molecular_weight>  (164) 
168.15

>  <exact_molecular_weight>  (164) 
168.04226

>  <molecular_formula>  (164) 
C8H8O4

>  <alogp>  (164) 
1.10

>  <topological_polar_surface_area>  (164) 
66.76

>  <rotatable_bond_count>  (164) 
2

>  <hydrogen_bond_acceptors>  (164) 
3

>  <hydrogen_bond_donors>  (164) 
2

>  <hydrogen_bond_acceptors_lipinski>  (164) 
3

>  <hydrogen_bond_donors_lipinski>  (164) 
2

>  <lipinski_rule_of_five_violations>  (164) 
0

>  <aromatic_rings_count>  (164) 
1

>  <qed_drug_likeliness>  (164) 
0.69

>  <formal_charge>  (164) 
0

>  <fractioncsp3>  (164) 
0.13

>  <number_of_minimal_rings>  (164) 
1

>  <van_der_walls_volume>  (164) 
144.03

>  <contains_sugar>  (164) 
False

>  <contains_ring_sugars>  (164) 
False

>  <contains_linear_sugars>  (164) 
False

>  <murcko_framework>  (164) 
c1ccccc1

>  <np_likeness>  (164) 
0.62

>  <chemical_class>  (164) 
Benzene and substituted derivatives

>  <chemical_sub_class>  (164) 
Benzoic acids and derivatives

>  <chemical_super_class>  (164) 
Benzenoids

>  <direct_parent_classification>  (164) 
O-methoxybenzoic acids and derivatives

>  <np_classifier_pathway>  (164) 
Shikimates and Phenylpropanoids

>  <np_classifier_superclass>  (164) 
Phenolic acids (C6-C1)

>  <np_classifier_class>  (164) 
Simple phenolic acids

>  <np_classifier_is_glycoside>  (164) 
False

>  <organisms>  (164) 
Brickellia veronicifolia|Solidago canadensis

>  <collections>  (164) 
Australian natural products|BIOFACQUIM|ConMedNP|Latin America dataset|Super Natural II|UNPD (Universal Natural Products Database)|ZINC NP

>  <dois>  (164) 
10.1016/j.jep.2008.05.012|10.1071/ch9681379

>  <synonyms>  (164) 
6-Methoxysalicylic acid|3147-64-6|Benzoic acid| 2-hydroxy-6-methoxy-|MFCD00674090|6-Hydroxy-o-anisic Acid|6-Methoxysalicylsaure|SCHEMBL973470|2-Hydroxy-6-methoxybenzoicacid|6-methoxy-2-hydroxobenzoic acid|CHEMBL3093473|DTXSID60343682|CHEBI:169986|2-methoxy-6-oxidanyl-benzoic acid|AMY18254|AKOS015890603|CS-W017816|HY-W017100|PS-3721|AC-23037|PD054432|SY047059|DB-026405|M1941|NS00014767|EN300-182671|O10800|A820873|J-018441|Z1255438926|InChI=1\/C8H8O4\/c1-12-6-4-2-3-5(9)7(6)8(10)11\/h2-4|9H|1H3|(H|10|11

>  <cas>  (164) 
3147-64-6

$$$$

     RDKit          2D

 33 37  0  0  0  0  0  0  0  0999 V2000
   -2.9851   -3.1712    0.0000 C   0  0  0  0  0  0  0  0  0  0  0  0
   -3.7183   -1.8626    0.0000 C   0  0  0  0  0  0  0  0  0  0  0  0
   -5.2181   -1.8432    0.0000 C   0  0  0  0  0  0  0  0  0  0  0  0
   -5.9849   -3.1325    0.0000 C   0  0  0  0  0  0  0  0  0  0  0  0
   -5.9513   -0.5346    0.0000 C   0  0  0  0  0  0  0  0  0  0  0  0
   -5.1846    0.7546    0.0000 C   0  0  0  0  0  0  0  0  0  0  0  0
   -3.6847    0.7353    0.0000 C   0  0  0  0  0  0  0  0  0  0  0  0
   -4.4179    2.0439    0.0000 C   0  0  0  0  0  0  0  0  0  0  0  0
   -5.9178    2.0632    0.0000 O   0  0  0  0  0  0  0  0  0  0  0  0
   -3.6512    3.3331    0.0000 O   0  0  0  0  0  0  0  0  0  0  0  0
   -2.9180    2.0245    0.0000 C   0  0  0  0  0  0  0  0  0  0  0  0
   -1.4181    2.0051    0.0000 C   0  0  0  0  0  0  0  0  0  0  0  0
   -0.6850    0.6965    0.0000 C   0  0  0  0  0  0  0  0  0  0  0  0
    0.0482   -0.6121    0.0000 C   0  0  0  0  0  0  0  0  0  0  0  0
   -1.4517   -0.5927    0.0000 C   0  0  0  0  0  0  0  0  0  0  0  0
   -0.7185   -1.9013    0.0000 C   0  0  0  0  0  0  0  0  0  0  0  0
    0.7814   -1.9207    0.0000 C   0  0  0  0  0  0  0  0  0  0  0  0
    1.5481   -0.6315    0.0000 C   0  0  0  0  0  0  0  0  0  0  0  0
    3.0479   -0.6508    0.0000 C   0  0  0  0  0  0  0  0  0  0  0  0
    2.2812   -1.9401    0.0000 C   0  0  0  0  0  0  0  0  0  0  0  0
    3.7811   -1.9594    0.0000 C   0  0  0  0  0  0  0  0  0  0  0  0
    5.2810   -1.9788    0.0000 C   0  0  0  0  0  0  0  0  0  0  0  0
    6.0477   -0.6896    0.0000 C   0  0  0  0  0  0  0  0  0  0  0  0
    7.5476   -0.7089    0.0000 O   0  0  0  0  0  0  0  0  0  0  0  0
    5.3145    0.6191    0.0000 C   0  0  0  0  0  0  0  0  0  0  0  0
    5.0731    2.0995    0.0000 C   0  0  0  0  0  0  0  0  0  0  0  0
    6.7306    1.1138    0.0000 C   0  0  0  0  0  0  0  0  0  0  0  0
    3.8146    0.6384    0.0000 C   0  0  0  0  0  0  0  0  0  0  0  0
    3.0815    1.9470    0.0000 C   0  0  0  0  0  0  0  0  0  0  0  0
    1.5816    1.9664    0.0000 C   0  0  0  0  0  0  0  0  0  0  0  0
    0.8149    0.6772    0.0000 C   0  0  0  0  0  0  0  0  0  0  0  0
    0.0817    1.9858    0.0000 C   0  0  0  0  0  0  0  0  0  0  0  0
   -2.9516   -0.5734    0.0000 C   0  0  0  0  0  0  0  0  0  0  0  0
  2  1  1  1
  2  3  1  0
  3  4  1  6
  3  5  1  0
  5  6  1  0
  6  7  1  0
  7  8  1  1
  8  9  2  0
  8 10  1  0
  7 11  1  0
 11 12  1  0
 12 13  1  0
 13 14  1  6
 13 15  1  0
 15 16  2  0
 16 17  1  0
 18 17  1  1
 18 19  1  0
 19 20  1  1
 19 21  1  0
 21 22  1  0
 22 23  1  0
 23 24  1  6
 23 25  1  0
 25 26  1  0
 25 27  1  0
 25 28  1  0
 28 29  1  1
 29 30  1  0
 30 31  1  0
 31 32  1  1
 33 15  1  6
 33  2  1  0
 33  7  1  0
 31 13  1  0
 31 18  1  0
 28 19  1  0
M  END
>  <identifier>  (165) 
CNP0219063.1

>  <canonical_smiles>  (165) 
C[C@H]1[C@H](C)CC[C@]2(C(=O)O)CC[C@]3(C)C(=CC[C@@H]4[C@@]5(C)CC[C@@H](O)C(C)(C)[C@@H]5CC[C@]43C)[C@H]12

>  <standard_inchi>  (165) 
InChI=1S/C30H48O3/c1-18-10-15-30(25(32)33)17-16-28(6)20(24(30)19(18)2)8-9-22-27(5)13-12-23(31)26(3,4)21(27)11-14-29(22,28)7/h8,18-19,21-24,31H,9-17H2,1-7H3,(H,32,33)/t18-,19+,21+,22-,23-,24+,27+,28-,29-,30+/m1/s1

>  <standard_inchi_key>  (165) 
WCGUUGGRBIKTOS-XHINXETDSA-N

>  <name>  (165) 
3-epiursolic acid

>  <iupac_name>  (165) 
(1~{S},2~{R},4~{a}~{S},6~{a}~{R},6~{a}~{S},6~{b}~{R},8~{a}~{R},10~{R},12~{a}~{R},14~{b}~{S})-10-hydroxy-1,2,6~{a},6~{b},9,9,12~{a}-heptamethyl-2,3,4,5,6,6~{a},7,8,8~{a},10,11,12,13,14~{b}-tetradecahydro-1~{H}-picene-4~{a}-carboxylic acid

>  <annotation_level>  (165) 
5

>  <total_atom_count>  (165) 
81

>  <heavy_atom_count>  (165) 
33

>  <molecular_weight>  (165) 
456.71

>  <exact_molecular_weight>  (165) 
456.36035

>  <molecular_formula>  (165) 
C30H48O3

>  <alogp>  (165) 
7.09

>  <topological_polar_surface_area>  (165) 
57.53

>  <rotatable_bond_count>  (165) 
1

>  <hydrogen_bond_acceptors>  (165) 
2

>  <hydrogen_bond_donors>  (165) 
2

>  <hydrogen_bond_acceptors_lipinski>  (165) 
2

>  <hydrogen_bond_donors_lipinski>  (165) 
2

>  <lipinski_rule_of_five_violations>  (165) 
1

>  <aromatic_rings_count>  (165) 
0

>  <qed_drug_likeliness>  (165) 
0.41

>  <formal_charge>  (165) 
0

>  <fractioncsp3>  (165) 
0.90

>  <number_of_minimal_rings>  (165) 
5

>  <van_der_walls_volume>  (165) 
456.30

>  <contains_sugar>  (165) 
False

>  <contains_ring_sugars>  (165) 
False

>  <contains_linear_sugars>  (165) 
False

>  <murcko_framework>  (165) 
C1=C2C3CCCCC3CCC2C4CCC5CCCCC5C4C1

>  <np_likeness>  (165) 
3.19

>  <chemical_class>  (165) 
Prenol lipids

>  <chemical_sub_class>  (165) 
Triterpenoids

>  <chemical_super_class>  (165) 
Lipids and lipid-like molecules

>  <direct_parent_classification>  (165) 
Taraxastane, ursane, and bauerane triterpenoids

>  <np_classifier_pathway>  (165) 
Terpenoids

>  <np_classifier_superclass>  (165) 
Triterpenoids

>  <np_classifier_class>  (165) 
Ursane and Taraxastane triterpenoids

>  <np_classifier_is_glycoside>  (165) 
False

>  <organisms>  (165) 
Abies nobilis|Abrus pulchellus subsp. cantoniensis|Acrocomia sclerocarpa|Alkanna hirsutissima|Amsinckia menziesii|Aromadendron elegans|Avrainvillea nigricans|Bambusa chungii|Brugmansia arborea|Buddleja variabilis|Bursatella leachi|Calea megacephala|Clutia richardiana|Conandron ramondioides Sieb.et Zucc.|Cordyline indivisa|Coronophora gregaria|Corydalis cornuta|Corynebacterium ammoniagenes|Cremastra appendiculata|Dacrydium biforme|Delphinium campylocentrum|Dendrobates truncatus|Didemnum inarmatum|Diospyros tricolor|Dipodium punctatum|Disepalum plagioneurum|Drymonia macrophylla|Drypetes roxburghii|Eremophila serrulata|Eriostemon deserti|Fagara rubescens|Formica fusca|Gentiana pyrenaica|Glenodinium halli|Gloxinia erinoides|Grindelia nana|Gynura elliptica|Hakea saligna|Halopitys incurvus|Haloxylon salicornicum|Isodon loxothyrsus|Jasminum grandiflorum|Laurencia caraibica|Lecanora lividocinerea|Leptothorax acervorum|Lesquerella auriculata|Leucanthemum maximum|Melaleuca uncinata|Mentha pulegiformis|Monascus purpureus|Nephroma australe|Osmundaria colensoi|Ostrinia nubilalis|Persea indica|Phegopteris bukoensis|Picris radicata|Pinus picea|Piper aequale|Polyphaga sinensis|Primula hirsuta|Psittacanthus cucullaris|Pycnocoma cornuta|Relbunium atherodes|Relicina connivens|Rhododendron barbatum|Rhododendron ferrugineum|Rodgersia podophylla|Ruta oreojasme|Salvia nubicola|Scapania nemorea|Schisandra lancifolia|Senecio scandens|Shigella flexneri|Smenospongia echina|Streptomyces coeruleorubidus|Streptomyces misawanensis|Streptomyces roseoviolaceus|Ternstroemia pringlei|Urtica fissa|Vallaris solanacea|Vinca major|Viscum album|Viscum coloratum|Vitex trifolia|calceolaria pinifolia

>  <collections>  (165) 
Australian natural products|BIOFACQUIM|CMAUP (cCollective molecular activities of useful plants)|KNApSaCK|Latin America dataset|NPASS|Super Natural II|TIPdb (database of Taiwan indigenous plants)|ZINC NP

>  <dois>  (165) 
10.1016/j.jep.2008.05.035

>  <synonyms>  (165) 
989-30-0|3-epi-ursolic acid|CHEMBL491715|(1S|2R|4aS|6aR|6aS|6bR|8aR|10R|12aR|14bS)-10-hydroxy-1|2|6a|6b|9|9|12a-heptamethyl-2|3|4|5|6|6a|7|8|8a|10|11|12|13|14b-tetradecahydro-1H-picene-4a-carboxylic acid|SCHEMBL19714770|HY-N4289|BDBM50346612|AKOS037515062|MS-28332|PD125278|CS-0032646|F82187|Epi-ursolic acid

>  <cas>  (165) 
989-30-0

$$$$

     RDKit          2D

 11 11  0  0  0  0  0  0  0  0999 V2000
   -1.0063   -3.1763    0.0000 C   0  0  0  0  0  0  0  0  0  0  0  0
   -0.0316   -2.0361    0.0000 O   0  0  0  0  0  0  0  0  0  0  0  0
   -0.5316   -0.6219    0.0000 C   0  0  0  0  0  0  0  0  0  0  0  0
   -2.0064   -0.3479    0.0000 C   0  0  0  0  0  0  0  0  0  0  0  0
   -2.5065    1.0663    0.0000 C   0  0  0  0  0  0  0  0  0  0  0  0
   -1.5318    2.2065    0.0000 C   0  0  0  0  0  0  0  0  0  0  0  0
   -0.0570    1.9324    0.0000 C   0  0  0  0  0  0  0  0  0  0  0  0
    0.4430    0.5183    0.0000 C   0  0  0  0  0  0  0  0  0  0  0  0
    1.9178    0.2442    0.0000 C   0  0  0  0  0  0  0  0  0  0  0  0
    2.8925    1.3844    0.0000 O   0  0  0  0  0  0  0  0  0  0  0  0
    2.4179   -1.1699    0.0000 O   0  0  0  0  0  0  0  0  0  0  0  0
  1  2  1  0
  2  3  1  0
  3  4  2  0
  4  5  1  0
  5  6  2  0
  6  7  1  0
  7  8  2  0
  8  9  1  0
  9 10  2  0
  9 11  1  0
  8  3  1  0
M  END
>  <identifier>  (166) 
CNP0156098.0

>  <canonical_smiles>  (166) 
COC1=CC=CC=C1C(=O)O

>  <standard_inchi>  (166) 
InChI=1S/C8H8O3/c1-11-7-5-3-2-4-6(7)8(9)10/h2-5H,1H3,(H,9,10)

>  <standard_inchi_key>  (166) 
ILUJQPXNXACGAN-UHFFFAOYSA-N

>  <name>  (166) 
2-METHOXYBENZOIC ACID

>  <iupac_name>  (166) 
2-methoxybenzoic acid

>  <annotation_level>  (166) 
5

>  <total_atom_count>  (166) 
19

>  <heavy_atom_count>  (166) 
11

>  <molecular_weight>  (166) 
152.15

>  <exact_molecular_weight>  (166) 
152.04734

>  <molecular_formula>  (166) 
C8H8O3

>  <alogp>  (166) 
1.39

>  <topological_polar_surface_area>  (166) 
46.53

>  <rotatable_bond_count>  (166) 
2

>  <hydrogen_bond_acceptors>  (166) 
2

>  <hydrogen_bond_donors>  (166) 
1

>  <hydrogen_bond_acceptors_lipinski>  (166) 
2

>  <hydrogen_bond_donors_lipinski>  (166) 
1

>  <lipinski_rule_of_five_violations>  (166) 
0

>  <aromatic_rings_count>  (166) 
1

>  <qed_drug_likeliness>  (166) 
0.70

>  <formal_charge>  (166) 
0

>  <fractioncsp3>  (166) 
0.13

>  <number_of_minimal_rings>  (166) 
1

>  <van_der_walls_volume>  (166) 
136.94

>  <contains_sugar>  (166) 
False

>  <contains_ring_sugars>  (166) 
False

>  <contains_linear_sugars>  (166) 
False

>  <murcko_framework>  (166) 
c1ccccc1

>  <np_likeness>  (166) 
-0.25

>  <chemical_class>  (166) 
Benzene and substituted derivatives

>  <chemical_sub_class>  (166) 
Benzoic acids and derivatives

>  <chemical_super_class>  (166) 
Benzenoids

>  <direct_parent_classification>  (166) 
O-methoxybenzoic acids and derivatives

>  <np_classifier_pathway>  (166) 
Shikimates and Phenylpropanoids

>  <np_classifier_superclass>  (166) 
Phenolic acids (C6-C1)

>  <np_classifier_class>  (166) 
Simple phenolic acids

>  <np_classifier_is_glycoside>  (166) 
False

>  <organisms>  (166) 
Akebia quinata|Akebia trifoliata|Artemisia capillaris|Brickellia veronicifolia|Capsicum annuum|Homo sapiens|Pinellia ternata|Senna alexandrina|Syzygium aromaticum|Terminalia chebula|Wollemia nobilis

>  <collections>  (166) 
Australian natural products|BIOFACQUIM|CMAUP (cCollective molecular activities of useful plants)|FooDB|GNPS (Global Natural Products Social Molecular Networking)|Latin America dataset|NPASS|ReSpect|TCMID (Traditional Chinese Medicine Integrated Database)|UNPD (Universal Natural Products Database)

>  <dois>  (166) 
10.1016/j.agee.2009.08.009|10.1016/j.jep.2008.05.012|10.1021/jf101029a|10.1093/pcp/pcn183|10.3945/jn.109.113613

>  <synonyms>  (166) 
o-Anisic acid|579-75-9|O-Methylsalicylic acid|o-Methoxybenzoic acid|Benzoic acid| 2-methoxy-|Salicylic acid methyl ether|529-75-9|Kyselina 2-methoxybenzoova|NSC 3778|MFCD00002431|CHEBI:421840|ortho-methoxybenzoic acid|49WA6Z7GZA|BENZOIC ACID|2-METHOXY|NSC-3778|Kyselina 2-methoxybenzoova Czech|EINECS 209-447-8|UNII-49WA6Z7GZA|BRN 0509929|AI3-20226|71F|methyl salicylic acid|anisole carboxylic acid|2-methoxy benzoic acid|O-Anisic acid| 8CI|Epitope ID:124944|1-carboxy-2-methoxybenzene|o-Anisic acid| >=99%|SCHEMBL3527|TimTec1_004173|4-10-00-00130 (Beilstein Handbook Reference)|AMY293|CHEMBL192311|METHOXYBENZOIC ACID| O-|DTXSID3060376|FEMA NO. 3943|FEMA 3943|HMS1545N15|HY-N1393|AB2883|BBL036896|s6295|STL168881|2-METHOXYBENZOIC ACID FHFI|AKOS000103118|AC-3023|CS-W019888|PS-5405|SY003594|DB-014137|DB-030864|A0481|A1729|NS00015109|2-Methoxybenzoic acid| ReagentPlus(R)| 99%|EN300-18034|AQ-344\/40173719|Q2018545|W-105423|2-Methoxybenzoic acid| Vetec(TM) reagent grade| 98%|Z57127524|F9995-1670|InChI=1\/C8H8O3\/c1-11-7-5-3-2-4-6(7)8(9)10\/h2-5H|1H3|(H|9|10|o-Anisic Acid; 2-Methoxybenzoic Acid; NSC 3778; O-Methylsalicylic Acid; Salicylic Acid Methyl Ether; o-Methoxybenzoic Acid

>  <cas>  (166) 
579-75-9|529-75-9

$$$$

     RDKit          2D

 34 38  0  0  0  0  0  0  0  0999 V2000
   -6.8975   -3.0474    0.0000 C   0  0  0  0  0  0  0  0  0  0  0  0
   -6.1852   -1.7273    0.0000 C   0  0  0  0  0  0  0  0  0  0  0  0
   -6.9723   -0.4504    0.0000 C   0  0  0  0  0  0  0  0  0  0  0  0
   -6.2599    0.8697    0.0000 C   0  0  0  0  0  0  0  0  0  0  0  0
   -4.7606    0.9128    0.0000 C   0  0  0  0  0  0  0  0  0  0  0  0
   -5.5476    2.1898    0.0000 C   0  0  0  0  0  0  0  0  0  0  0  0
   -4.0483    2.2329    0.0000 C   0  0  0  0  0  0  0  0  0  0  0  0
   -2.5489    2.2761    0.0000 C   0  0  0  0  0  0  0  0  0  0  0  0
   -1.7618    0.9992    0.0000 C   0  0  0  0  0  0  0  0  0  0  0  0
   -1.0495    2.3193    0.0000 C   0  0  0  0  0  0  0  0  0  0  0  0
   -2.4741   -0.3209    0.0000 C   0  0  0  0  0  0  0  0  0  0  0  0
   -1.6870   -1.5978    0.0000 C   0  0  0  0  0  0  0  0  0  0  0  0
   -0.1877   -1.5547    0.0000 C   0  0  0  0  0  0  0  0  0  0  0  0
    0.5246   -0.2346    0.0000 C   0  0  0  0  0  0  0  0  0  0  0  0
    2.0240   -0.1914    0.0000 C   0  0  0  0  0  0  0  0  0  0  0  0
    1.3117   -1.5115    0.0000 C   0  0  0  0  0  0  0  0  0  0  0  0
    2.8111   -1.4683    0.0000 C   0  0  0  0  0  0  0  0  0  0  0  0
    4.3105   -1.4252    0.0000 C   0  0  0  0  0  0  0  0  0  0  0  0
    5.0228   -0.1051    0.0000 C   0  0  0  0  0  0  0  0  0  0  0  0
    6.5222   -0.0619    0.0000 O   0  0  0  0  0  0  0  0  0  0  0  0
    7.3092   -1.3388    0.0000 C   0  0  0  0  0  0  0  0  0  0  0  0
    8.8086   -1.2957    0.0000 C   0  0  0  0  0  0  0  0  0  0  0  0
    6.5969   -2.6589    0.0000 O   0  0  0  0  0  0  0  0  0  0  0  0
    4.2357    1.1718    0.0000 C   0  0  0  0  0  0  0  0  0  0  0  0
    3.9328    2.6409    0.0000 C   0  0  0  0  0  0  0  0  0  0  0  0
    5.6299    1.7252    0.0000 C   0  0  0  0  0  0  0  0  0  0  0  0
    2.7363    1.1287    0.0000 C   0  0  0  0  0  0  0  0  0  0  0  0
    1.9493    2.4056    0.0000 C   0  0  0  0  0  0  0  0  0  0  0  0
    0.4499    2.3624    0.0000 C   0  0  0  0  0  0  0  0  0  0  0  0
   -0.2624    1.0423    0.0000 C   0  0  0  0  0  0  0  0  0  0  0  0
   -0.9747   -0.2777    0.0000 C   0  0  0  0  0  0  0  0  0  0  0  0
   -3.9735   -0.3641    0.0000 C   0  0  0  0  0  0  0  0  0  0  0  0
   -4.6858   -1.6842    0.0000 C   0  0  0  0  0  0  0  0  0  0  0  0
   -3.8987   -2.9611    0.0000 C   0  0  0  0  0  0  0  0  0  0  0  0
  1  2  2  0
  2  3  1  0
  3  4  1  0
  4  5  1  0
  5  6  1  1
  5  7  1  0
  7  8  1  0
  8  9  1  0
  9 10  1  6
  9 11  1  0
 11 12  1  6
 12 13  1  0
 14 13  1  1
 14 15  1  0
 15 16  1  1
 15 17  1  0
 17 18  1  0
 18 19  1  0
 19 20  1  6
 20 21  1  0
 21 22  1  0
 21 23  2  0
 19 24  1  0
 24 25  1  0
 24 26  1  0
 24 27  1  0
 27 28  1  1
 28 29  1  0
 29 30  1  0
 30 31  1  1
 11 32  1  0
 32 33  1  1
 33 34  1  6
 33  2  1  0
 32  5  1  0
 30  9  1  0
 30 14  1  0
 27 15  1  0
M  END
>  <identifier>  (167) 
CNP0242707.1

>  <canonical_smiles>  (167) 
C=C1CC[C@]2(C)CC[C@]3(C)[C@H](CC[C@@H]4[C@@]5(C)CC[C@@H](OC(C)=O)C(C)(C)[C@@H]5CC[C@]43C)[C@H]2[C@@H]1C

>  <standard_inchi>  (167) 
InChI=1S/C32H52O2/c1-20-12-15-29(6)18-19-31(8)23(27(29)21(20)2)10-11-25-30(7)16-14-26(34-22(3)33)28(4,5)24(30)13-17-32(25,31)9/h21,23-27H,1,10-19H2,2-9H3/t21-,23-,24+,25-,26-,27-,29-,30+,31-,32-/m1/s1

>  <standard_inchi_key>  (167) 
SFEUTIOWNUGQMZ-KWBPNQCJSA-N

>  <name>  (167) 
nan

>  <iupac_name>  (167) 
[(3~{R},4~{a}~{R},6~{a}~{R},6~{a}~{R},6~{b}~{R},8~{a}~{R},12~{S},12~{a}~{R},14~{a}~{R},14~{b}~{R})-4,4,6~{a},6~{b},8~{a},12,14~{b}-heptamethyl-11-methylene-1,2,3,4~{a},5,6,6~{a},7,8,9,10,12,12~{a},13,14,14~{a}-hexadecahydropicen-3-yl] acetate

>  <annotation_level>  (167) 
5

>  <total_atom_count>  (167) 
86

>  <heavy_atom_count>  (167) 
34

>  <molecular_weight>  (167) 
468.77

>  <exact_molecular_weight>  (167) 
468.39673

>  <molecular_formula>  (167) 
C32H52O2

>  <alogp>  (167) 
8.60

>  <topological_polar_surface_area>  (167) 
26.30

>  <rotatable_bond_count>  (167) 
1

>  <hydrogen_bond_acceptors>  (167) 
2

>  <hydrogen_bond_donors>  (167) 
0

>  <hydrogen_bond_acceptors_lipinski>  (167) 
2

>  <hydrogen_bond_donors_lipinski>  (167) 
0

>  <lipinski_rule_of_five_violations>  (167) 
1

>  <aromatic_rings_count>  (167) 
0

>  <qed_drug_likeliness>  (167) 
0.28

>  <formal_charge>  (167) 
0

>  <fractioncsp3>  (167) 
0.91

>  <number_of_minimal_rings>  (167) 
5

>  <van_der_walls_volume>  (167) 
481.38

>  <contains_sugar>  (167) 
False

>  <contains_ring_sugars>  (167) 
False

>  <contains_linear_sugars>  (167) 
False

>  <murcko_framework>  (167) 
C1CCC2C(C1)CCC3C2CCC4C5CCCCC5CCC43

>  <np_likeness>  (167) 
3.13

>  <chemical_class>  (167) 
Prenol lipids

>  <chemical_sub_class>  (167) 
Triterpenoids

>  <chemical_super_class>  (167) 
Lipids and lipid-like molecules

>  <direct_parent_classification>  (167) 
Taraxastane, ursane, and bauerane triterpenoids

>  <np_classifier_pathway>  (167) 
Terpenoids

>  <np_classifier_superclass>  (167) 
Triterpenoids

>  <np_classifier_class>  (167) 
Ursane and Taraxastane triterpenoids

>  <np_classifier_is_glycoside>  (167) 
False

>  <organisms>  (167) 
Brickellia veronicifolia

>  <collections>  (167) 
BIOFACQUIM|Latin America dataset

>  <dois>  (167) 
10.1016/j.jep.2008.05.012

>  <synonyms>  (167) 
Taraxasteryl acetate

>  <cas>  (167) 
nan

$$$$

     RDKit          2D

 31 35  0  0  0  0  0  0  0  0999 V2000
   -6.1212    1.5751    0.0000 C   0  0  0  0  0  0  0  0  0  0  0  0
   -5.2492    0.3547    0.0000 C   0  0  0  0  0  0  0  0  0  0  0  0
   -5.8701   -1.0108    0.0000 C   0  0  0  0  0  0  0  0  0  0  0  0
   -7.3631   -1.1558    0.0000 O   0  0  0  0  0  0  0  0  0  0  0  0
   -4.9980   -2.2312    0.0000 C   0  0  0  0  0  0  0  0  0  0  0  0
   -3.5051   -2.0863    0.0000 C   0  0  0  0  0  0  0  0  0  0  0  0
   -2.8841   -0.7208    0.0000 C   0  0  0  0  0  0  0  0  0  0  0  0
   -3.7562    0.4997    0.0000 C   0  0  0  0  0  0  0  0  0  0  0  0
   -4.6282    1.7201    0.0000 C   0  0  0  0  0  0  0  0  0  0  0  0
   -3.1353    1.8651    0.0000 C   0  0  0  0  0  0  0  0  0  0  0  0
   -1.6423    2.0101    0.0000 C   0  0  0  0  0  0  0  0  0  0  0  0
   -0.7702    0.7896    0.0000 C   0  0  0  0  0  0  0  0  0  0  0  0
   -1.3911   -0.5758    0.0000 C   0  0  0  0  0  0  0  0  0  0  0  0
   -2.0121   -1.9413    0.0000 C   0  0  0  0  0  0  0  0  0  0  0  0
   -0.5191   -1.7963    0.0000 C   0  0  0  0  0  0  0  0  0  0  0  0
    0.9739   -1.6513    0.0000 C   0  0  0  0  0  0  0  0  0  0  0  0
    1.5948   -0.2858    0.0000 C   0  0  0  0  0  0  0  0  0  0  0  0
    2.4669   -1.5063    0.0000 C   0  0  0  0  0  0  0  0  0  0  0  0
    3.0878   -0.1409    0.0000 C   0  0  0  0  0  0  0  0  0  0  0  0
    3.9598   -1.3613    0.0000 C   0  0  0  0  0  0  0  0  0  0  0  0
    5.4528   -1.2163    0.0000 C   0  0  0  0  0  0  0  0  0  0  0  0
    6.9053   -1.5907    0.0000 C   0  0  0  0  0  0  0  0  0  0  0  0
    5.3363   -2.7118    0.0000 C   0  0  0  0  0  0  0  0  0  0  0  0
    6.0737    0.1491    0.0000 C   0  0  0  0  0  0  0  0  0  0  0  0
    5.2017    1.3696    0.0000 C   0  0  0  0  0  0  0  0  0  0  0  0
    3.7087    1.2246    0.0000 C   0  0  0  0  0  0  0  0  0  0  0  0
    4.3296    2.5900    0.0000 C   0  0  0  0  0  0  0  0  0  0  0  0
    2.8367    2.4451    0.0000 C   0  0  0  0  0  0  0  0  0  0  0  0
    1.3437    2.3001    0.0000 C   0  0  0  0  0  0  0  0  0  0  0  0
    0.7228    0.9346    0.0000 C   0  0  0  0  0  0  0  0  0  0  0  0
   -0.1493    2.1551    0.0000 C   0  0  0  0  0  0  0  0  0  0  0  0
  2  1  1  6
  2  3  1  0
  3  4  2  0
  3  5  1  0
  5  6  1  0
  7  6  1  6
  7  8  1  0
  8  9  1  6
  8 10  1  0
 10 11  1  0
 12 11  1  6
 12 13  1  0
 13 14  1  6
 13 15  1  0
 15 16  1  0
 16 17  1  0
 17 18  1  1
 17 19  1  0
 19 20  1  1
 20 21  1  0
 21 22  1  0
 21 23  1  0
 21 24  1  0
 24 25  1  0
 25 26  1  0
 26 27  1  6
 26 28  1  0
 28 29  1  0
 29 30  1  0
 30 31  1  6
  8  2  1  0
 30 12  1  0
 13  7  1  0
 30 17  1  0
 26 19  1  0
M  END
>  <identifier>  (168) 
CNP0240312.1

>  <canonical_smiles>  (168) 
C[C@H]1C(=O)CC[C@@H]2[C@]1(C)CC[C@H]1[C@@]2(C)CC[C@@]2(C)[C@@H]3CC(C)(C)CC[C@]3(C)CC[C@]12C

>  <standard_inchi>  (168) 
InChI=1S/C30H50O/c1-20-21(31)9-10-22-27(20,5)12-11-23-28(22,6)16-18-30(8)24-19-25(2,3)13-14-26(24,4)15-17-29(23,30)7/h20,22-24H,9-19H2,1-8H3/t20-,22+,23-,24+,26+,27+,28-,29+,30-/m0/s1

>  <standard_inchi_key>  (168) 
OFMXGFHWLZPCFL-SVRPQWSVSA-N

>  <name>  (168) 
Friedelin

>  <iupac_name>  (168) 
(4~{R},4~{a}~{S},6~{a}~{S},6~{a}~{S},6~{b}~{R},8~{a}~{R},12~{a}~{R},14~{a}~{S},14~{b}~{S})-4,4~{a},6~{a},6~{b},8~{a},11,11,14~{a}-octamethyl-2,4,5,6,6~{a},7,8,9,10,12,12~{a},13,14,14~{b}-tetradecahydro-1~{H}-picen-3-one

>  <annotation_level>  (168) 
5

>  <total_atom_count>  (168) 
81

>  <heavy_atom_count>  (168) 
31

>  <molecular_weight>  (168) 
426.73

>  <exact_molecular_weight>  (168) 
426.38617

>  <molecular_formula>  (168) 
C30H50O

>  <alogp>  (168) 
8.46

>  <topological_polar_surface_area>  (168) 
17.07

>  <rotatable_bond_count>  (168) 
0

>  <hydrogen_bond_acceptors>  (168) 
1

>  <hydrogen_bond_donors>  (168) 
0

>  <hydrogen_bond_acceptors_lipinski>  (168) 
1

>  <hydrogen_bond_donors_lipinski>  (168) 
0

>  <lipinski_rule_of_five_violations>  (168) 
1

>  <aromatic_rings_count>  (168) 
0

>  <qed_drug_likeliness>  (168) 
0.38

>  <formal_charge>  (168) 
0

>  <fractioncsp3>  (168) 
0.97

>  <number_of_minimal_rings>  (168) 
5

>  <van_der_walls_volume>  (168) 
444.92

>  <contains_sugar>  (168) 
False

>  <contains_ring_sugars>  (168) 
False

>  <contains_linear_sugars>  (168) 
False

>  <murcko_framework>  (168) 
C1CCC2C(C1)CCC3C2CCC4C5CCCCC5CCC43

>  <np_likeness>  (168) 
2.64

>  <chemical_class>  (168) 
Prenol lipids

>  <chemical_sub_class>  (168) 
Triterpenoids

>  <chemical_super_class>  (168) 
Lipids and lipid-like molecules

>  <direct_parent_classification>  (168) 
Taraxerane, multiflorane, glutinane and friedelane triterpenoids

>  <np_classifier_pathway>  (168) 
Terpenoids

>  <np_classifier_superclass>  (168) 
Triterpenoids

>  <np_classifier_class>  (168) 
Friedelane triterpenoids

>  <np_classifier_is_glycoside>  (168) 
False

>  <organisms>  (168) 
Aaptos aaptos|Abies koreana|Abutilon grandiflorum|Acacia glaucescens|Acacia pachyphloia|Acacia sparsiflora|Acer mandshuricum|Achillea arabica|Achillea micrantha|Achillea santolina|Achlya bisexualis|Achyranthes bidentata|Aconitum fauriei|Aconitum nevadense|Adansonia digitata|Adenopeltis colliguaya|Adina rubescens|Agastache rugosa|Agathosma scaberula|Agave huachucensis|Agave shawii|Agave utahensis|Aglaia elaeagnoidea|Aglaia forbesii|Ajuga pyramidalis|Alaria crispa|Allium neapolitanum|Alnus firma|Aloe indica|Alpinia intermedia|Alseodaphne corneri|Ambrosia grayi|Anaptychia heterochroa|Anaptychia speciosa|Anatheca montagnei|Angiopteris caudatiformis|Ania latifolia|Aniba parviflora|Anisomeles indica|Annona cherimolia|Annona impressivenia|Anomospermum grandifolium|Anthemis plutonia|Anthopleura xanthogrammica|Aplidium orthium|Apterostigma dentigerum|Arabidopsis lyrata subsp. lyrata|Ardisia japonica|Arenaria juncea|Argyranthemum frutescens|Argyrochosma fendleri|Argyrolobium megarrhizum|Aristolochia elegans|Artemisia annua L.|Artemisia arbuscula|Artemisia bigelovii|Artemisia montana|Artemisia schimperi|Artemisia sieversiana|Artemisia vestita|Arthrinium arundinis|Arthrobacter viscosus|Aspergillus arenarius|Aspergillus candidus|Aspergillus flavipes|Aspergillus quadrilineatus|Aspergillus unguis|Aster altaicus|Aster tataricus|Astragalus gummifer|Astragalus pamirensis|Astrantia major|Atylosia trinervia|Aulacocephalus temmincki|Axinella vaceleti|Azara microphylla|Baccharis thesioides|Bacillus badius|Bacillus subtilis|Bacillus thuringiensis|Baeomyces roseus|Baileya multiradiata|Balanophora harlandii|Baptisia lecontii|Basanacantha spinosa|Beaumontia brevituba|Beauveria felina|Berberis lambertii|Berberis stolonifera|Bersama yangambiensis|Betula davurica|Bidens cernua|Bipolaris sorokiniana|Bipolaris zeicola|Bishofia javanica|Bitis arietans|Bituminaria bituminosa|Blainvillea rhomboidea|Bombus hortorum|Bonnetia dinizii|Brenneria rubrifaciens|Bupleurum tenue|Burkholderia pyrrocinia|Byssothecium obiones|Cachrys trifida|Cajanus cajan|Calodendrum capense|Calophyllum cordato-oblongum|Calophyllum inophyllum|Calophyllum pinetorum|Caloplaca murorum|Calyx podatypa|Camellia sasanqua|Cardiospermum halicacabum|Carpinus cordata|Cassia javanica subsp. nodosa|Cassia roxburghii|Cassia siamea|Cassia siamea Lamk.|Castanopsis sclerophylla|Catharsius molossus|Celastrus vulcanicola|Celtis durandii|Centaurea aemulans|Centaurea cadmea|Centaurea hololeuca|Centaurea nigrescens|Centaurea phyllocephala|Centaurea seridis|Centipeda cunninghami|Ceratocystis clavigera|Ceratopetalum apetalum|Cereus weberi|Cervus elaphus|Cetraria collata|Chara corallina|Cheilanthes mysurensis|Chisocheton siamensis|Chlamydomonas reinhardtii|Chromodoris petechialis|Chrozophora obliqua|Chrysanthemum makinoi|Chrysanthemum x morifolium|Cichorium intybus|Cirsium japonicum|Citrus hybr|Citrus reshni|Cladiella krempfi|Cladonia cryptochlorophaea|Clarkia unguiculata|Clematis chinensis|Clematis hexapetala|Clematis manshurica|Clematis terniflora var. mandshurica|Clinostemon mahuba|Clusia nemorosa|Cneorum pulverulentum|Coccoloba excoriata|Codonopsis pilosula|Codonopsis pilosula nannf. var. modesta (nannf.) l.t. shen|Codonopsis subglobosa|Codonopsis tangshen OLIV.|Coleogyne ramosissima|Coleus coerulescens|Coleus garckeanus|Conocephalum japonicum|Conoideocrella luteorostrata|Consolida ajacis|Convallaria keiskei|Conyza canadensis|Coprinellus heptemerus|Cordylanthus kingii|Coreopsis fasciculata|Cornus mas|Corydalis longipes|Corydalis paniculigera|Cotylelobium lanceolatum|Crambe crambe|Crepis foetida|Crinipellis scabella|Crinum defixum|Crossopetalum lobatum|Croton caudatus|Croton cumingii|Croton insularis|Crucianella maritima|Cuphea carthagenensis|Curcuma kwangsiensis|Cyanostegia microphylla|Cyathea podophylla|Cyathocline purpurea|Cybister confusus|Cycas armstrongii|Cycas revoluta|Cylas formicarius|Cynoctonum wilfordii|Cyrtanthus falcatus|Cystophora scalaris|Dacrycarpus imbricatus|Dahlstedtia pinnata|Dalbergia stipulacea|Dalea tinctoria|Dalea tuberculata|Daniellia ogea|Daphne papyracea|Dasystenella acanthina|Dendroaspis angusticeps|Dendrobium chrysotoxum|Dendrodoris tuberculosa|Dermolepida albohirtum|Dichomitus squalens|Dinemasporium strigosum|Dioscoreophyllum cumminsii|Diospyros maritima|Diospyros maritima BLUME|Dirca occidentalis|Discodermia dissoluta|Disynaphia halimifolia|Dolichandrone crispa|Doodia picta|Doris atromarginata|Doris montereyensis|Dorstenia lindeniana|Dovyalis abyssinica|Dryobalanops oblongifolia|Dryopteris crenata|Drypetes inaequalis|Drypetes littoralis|Drypetes paxii|Drypetes tessmanniana|Duddingtonia flagrans|Durio zibethinus|Echinochloa crus-galli|Echinodontium tsugicola|Echinops grijsii|Ectatosoma tiaratum|Edgeworthia gardneri|Egregia menziesii|Elaeagnus commutata|Elaeocarpus fuscoides|Elephantopus tomentosus|Elymus repens|Encelia frutescens|Endodesmia calophylloides|Ephedra aphylla|Epipolasis kushimotoensis|Eragrostis viscosa|Eria tomentosa|Erica arborea L.|Erigeron linifolius|Erinus alpinus|Eskemukerjea megacarpum|Eucalyptus cordata|Eucalyptus flocktoniae|Eucalyptus froggattii|Eucalyptus regnans|Eunicella cavolinii|Euonymus japonicus|Eupatorium hyssopifolium|Euphorbia aellenii|Euphorbia biglandulosa|Euphorbia characias|Euphorbia cheiradenia|Euphorbia iberica|Euphorbia ingens|Euphorbia leuconeura|Euphorbia parviflora|Euphorbia polygonifolia|Euphorbia segetalis|Eurybia divaricata|Euryops algoensis|Eusynstyela latericius|Eutreptia viridis|Evasterias troschelii|Evodiopanax innovans|Excoecaria agallocha|Fagraea fragrans|Flindersia brayleyana|Flueggea microcarpa|Forcipomyia marksae|Forsteronia refracta|Fridericia chica|Fritillaria taipaiensis|Fritillaria ussuriensis|Fructus syzygii|Fulmarus glacialis|Fusarium equiseti|Ganoderma applanatum|Ganoderma cochlear|Garcinia edulis|Garcinia hombroniana|Garcinia prainiana|Gardenia jasminoides|Genista corsica|Geranium macrorrhizum|Gerbera piloselloides|Glochidion puberum|Gloiopeltis furcata|Glycosmis ovoidea|Glycyrrhiza squamulosa|Gomortega keule|Gonepteryx rhamni|Graphis rikuzensis|Grewia mollis|Grindelia perennis|Guettarda eximia|Gymnadenia conopsea|Gymnaster koraiensis|Gymnocarpium robertianum|Gypothamnium pinifolium|Hakea amplexicaulis|Haplopteris anguste-elongata|Harungana madagascariensis|Hedeoma pulegioides|Heliconius cydno|Heliotropium floridum|Heracleum sphondylium|Heterocapsa triquetra|Heterotheca grandiflora|Hexabranchus sanguineus|Hippocratea excelsa|Hopea jucunda|Hovenia acerba|Hydnocarpus hainanensis|Hydrangea chinensis|Hypolaena fastigiata|Imperata cylindrica|Indigofera microcarpa|Inula cappa|Ipomoea muelleri|Iris ensata|Iris pallida|Iryanthera juruensis|Isocoma pluriflora|Isocoma wrightii|Isolona campanulata|Ixora chinensis|Jaborosa caulescens|Jacobaea adonidifolia|Jasonia montana|Juglans nigra|Jungermannia obovata|Juniperus foetidissima|Kadsura heteroclita|Kaempferia marginata|Kalanchoe spathulata|Kaunia saltensis|Keiferia lycopersicella|Kelletia kelletii|Khaya grandifoliola|Kielmeyera elata|Kokoona zeylanica Thwaites|Kummerowia striata|Lactarius pubescens|Larix kaempferi (Lamb.) Carr|Laurencia gracilis|Lavandula dentata|Lecanora glaucoma|Lecanora sordida|Lechevalieria aerocolonigenes|Lecidea speirodes|Lendenfeldia frondosa|Lenzites sepiaria|Lepraria xanthina|Leptosyne bigelovii|Leucopaxillus gentianeus|Liabum bourgeaui|Liatris punctata|Licaria armeniaca|Liriope spicata|Litsea gracilipes|Litsea pungens|Lobophytum cristatum|Lolium cuneatum|Lonchocarpus urucu|Lupinus cosentinii|Lyophyllum shimeji|Macaranga tanarius|Machilus zuihoensis|Maclura aurantiaca|Macrophomina phaseolina|Malacosoma americanum|Mallotus repandus|Mammillaria magnimamma|Mandragora officinarum|Mangifera indica|Mangifera persiciformis|Mascarenhasia arborescens|Matricaria parthenium|Maytenus apurimacensis|Maytenus aquifolium|Maytenus cuzcoina|Maytenus horrida|Maytenus macrocarpa|Meconopsis horridula|Meconopsis napaulensis|Meliosma lanceolata|Merremia umbellata|Meryta denhamii|Metarhizium indigoticum|Methylobacterium extorquens|Miconia myriantha|Micranthemum umbrosum|Micrococcus luteus|Microcystis viridis|Micromelum minutum|Micromonas pusilla|Millettia conraui|Mimosa invisa|Mimosa rubicaulis|Mitragyna hirsuta|Mnium hornum|Modiolus demissus|Monanchora pulchra|Monilinia fructigena|Montipora mollis|Morinda citrifolia|Munronia delavayi|Myristica argentea|Myrtus tomentosa|Naja kaouthia|Narcissus concolor|Nauclea officinalis|Nauclea pilosa|Neatostema apulum|Neolitsea dealbata|Neonectria candida|Nephelium mutabile|Nicotiana repanda|Nipaecoccus aurilanatus|Notholirion bulbuliferum|Nuphar lutea|Nyctanthes Arbor|Nyctanthes arbor-tristis Linn.|Oenothera x erythrosepala|Oncoba echinata|Onoseris lopezii|Ophiolepis superba|Ophiorrhiza liukiuensis|Ormosia flava|Ormosia panamensis|Oscillatoria princeps|Osmerus mordax|Oxera splendida|Ozoroa insignis|Pachybasium candidum|Palafoxia rosea|Panax arboreus|Papaver macrostomum|Papilio phorcas|Parabenzoin trilobum|Paramyrothecium roridum|Parastrephia lepidophylla|Passalora fulva|Pedicularis condensata|Pedicularis densispica|Penianthus zenkeri|Penicillium crustaceum|Penicillium kapuscinskii|Penicillium solitum|Penstemon richardsonii|Penstemon secundiflorus|Pentaceraster alveolatus|Pentaclethra macroloba|Pentzia calva|Peperomia heyneana|Perenniporia ochroleuca|Perityle vaseyi|Perna viridis|Petasites georgicus|Peucedanum longifolium|Phaleria cumingii|Phedimus kamtschaticus|Phellodendron japonicum MAXIM|Phlegmariurus fordii|Phlogacanthus thyrsiflorus|Phoebe formosana|Phoenix loureiroi|Pholiota squarrosa|Phormia regina|Phormidium sp.|Phyllanthus reticulatus|Phytolacca acinosa|Picea breweriana|Picea mariana|Pimelobacter simplex|Pinna nobilis|Pinus longifolia|Piper arboreum|Piper nepalense|Piper umbellatum|Pistacia mexicana|Pittocaulon velatum|Plantago alpina|Plazia daphnoides|Plectocephalus chilensis|Plectranthus ornatus|Pleuranthodium racemigerum|Pluchea sericea|Plumbago pulchella|Plumeria alba|Poa sphondylodes|Podostictina degelii|Pogostemon cablin|Polemonium caeruleum|Polycephalomyces nipponicus|Polygala ruwenzoriensis|Polygonum bistorta|Polypodium hastatum|Polyporus ciliatus|Populus grandidentata|Porella swartziana|Porophyllum riedelii|Portulaca oleracea|Poterium sanguisorba|Pouzolzia occidentalis|Primula integrifolia|Pristimera indica|Prunus japonica|Pseudomonas viridiflava|Pseudophryne coriacea|Psorospermum glaberrimum|Pteleopsis hylodendron|Pterogorgia bipinnata|Pulicaria wightiana|Punica granatum|Pygeum topengii|Pyrrosia sheareri|Pyrus pashia|Pyrus ussuriensis|Pyrus x bretschneideri|Quercus canariensis|Quercus glauca Thunb.|Quercus mongolica|Quercus myrsenaefolia|Quercus robur|Quercus stenophylla Makino.|Quercus suber|Quercus variabilis|Radermachera xylocarpa|Ramariopsis helvola|Randia longispina|Ranunculus sceleratus|Raputia simulans|Raukaua simplex|Reniera cratera|Renilla muelleri|Reticulitermes flavipes|Rheum webbianum|Rhizobium etli|Rhizosolenia setigera|Rhodococcus jostii|Rhododendron formosanum|Roccella fucoides|Rohdea wattii|Rosa hybrid cultivar|Rubrivivax gelatinosus|Rugosa rugosa|Rumex conglomeratus|Ruscus aculeatus|Ruta microcarpa|Ruta pinnata|Sabal peregrina|Sageretia thea|Sageretia theezans|Salacia campestris|Salacia chinensis|Salix purpurea|Salix sachalinensis|Salvia coulteri|Salvia dorrii|Salvia infuscata|Salvia miltiorrhiza|Salvia parryi|Sarcodictyon roseum|Sarcotragus spinosulus|Sarocladium zeae|Satureja cuneifolia|Schizaphis graminum|Sciadotenia toxifera|Selinum carvi|Selinum carvifolium|Senecio chinensis|Senecio desfontainei|Senecio flavus|Senecio fulgens|Senecio macrophyllus|Sida cordifolia|Sidastrum acuminatum|Sideritis caesarea|Sideritis romana|Silene fortunei|Silene inflata|Sinoadina racemosa|Sinocrassula indica|Sinularia dura|Sinularia hirta|Siphonaria funiculata|Siphonodon australis|Smilax myosotiflora|Solanum chacoense|Solanum curtipes|Solanum sisymbriifolium|Solenopsis invicta|Solidago chinensis|Sophora angustifolia|Sophora secundiflora|Soulamea pancheri|Spodoptera littoralis|Stachys recta|Stenostomum acutatum|Stevia origanoides|Stevia polycephala|Stevia porphyrea|Stevia purpurea|Sticta mougeotiana|Streptomyces collinus|Streptomyces fradiae|Streptomyces kanamyceticus|Streptomyces longissimus|Streptomyces mobaraensis|Streptomyces parvisporogenes|Streptomyces rubellomurinus|Streptomyces toyocaensis|Streptomyces xanthochromogenes|Strombus gigas|Strychnos ledermannii|Suillus bovinus|Swartzia madagascariensis|Swertia corymbosa|Symphonia globulifera|Symphytum asperum|Syncarpia laurifolia|Syncolostemon parviflorus|Syzygium cumini|Syzygium formosanum|Syzygium jambos|Tetracera asiatica|Teucrium depressum|Teucrium leucocladum|Thalictrum longistylum|Thalictrum strictum|Thapsia transtagana|Thermopsis lanceolata|Thesium humile|Thryptomene kochii|Thuja plicata|Thunbergia grandiflora|Thymbra spicata|Thymus piperella|Tilia vulgaris|Tolypocladium ophioglossoides|Tolypothrix tjipanasensis|Tovomita brasiliensis|Toxicopueraria peduncularis|Tradescantia pallida|Trichia carnea|Trichia floriformis|Trichilia claussenii|Trichilia hirta|Trichilia rubescens|Trididemnum solidum|Triglochin maritima|Tripetalum cymosum|Triplaris cumingiana|Tuber melanosporum|Tulipa silvestris|Turpinia ternata|Turraeanthus mannii|Typha domingensis|Ulmus campestris|Ulmus pumila L.|Uncaria lancifolia|Undaria pinnatifida|Urtica triangularis|Ustilago maydis|Vaccinium bracteatum|Valeriana cardamines|Valeriana hardwickii|Valeriana microphylla|Valeriana wolgensis|Vellozia compacta|Verbena triphylla|Vernonia auriculifera|Vernonia nitidula|Veronica chamaedrys|Vibrio anguillarum|Viburnum davidii|Viburnum rhytidophyllum|Viburnum urceolatum|Viguiera decurrens|Viguiera oblongifolia|Virola elongata|Vismia japurensis|Vismia laurentii|Vitex agnus-castus|Vitex pinnata|Vitex trifolia|Werneria decora|Wolfiporia cocos|Xanthoparmelia subincerta|Xiphophora gladiata|Xylaria telfairii|Xyris pterygoblephara|Yucca flexilis|Zanthoxylum monophyllum|Zanthoxylum syncarpum|Zelkova serrata

>  <collections>  (168) 
ANPDB|Australian natural products|BIOFACQUIM|CMAUP (cCollective molecular activities of useful plants)|ChEBI NPs|ChemSpider NPs|KNApSaCK|Latin America dataset|NANPDB (Natural Products from Northern African Sources)|NPASS|NPEdia|NuBBEDB|Phyto4Health|Super Natural II|TCMDB-Taiwan (Traditional Chinese Medicine database)|TIPdb (database of Taiwan indigenous plants)|UEFS (Natural Products Databse of the UEFS)|VietHerb|ZINC NP

>  <dois>  (168) 
10.1016/0031-9422(81)84067-8|10.1016/S0378-8741(01)00414-7|10.1016/j.fitote.2009.12.002|10.1016/j.phytochem.2004.08.024|10.1039/jr9560002115

>  <synonyms>  (168) 
559-74-0|Friedeline|Friedelan-3-one|(-)-Friedelin|friedelanone|D:A-Friedooleanan-3-one|AK21264UAD|CHEBI:5171|CHEMBL485998|(4R|4aS|6aS|6bR|8aR|12aR|12bS|14aS|14bS)-4|4a|6b|8a|11|11|12b|14a-octamethylicosahydropicen-3(2H)-one|24|25|26-Trinoroleanan-3-one| 5|9|13-trimethyl-|(4b|5b|8a|9b|10a|13a|14b)-|SR-05000002227|EINECS 209-205-1|UNII-AK21264UAD|Fridelin|NSC-55141|NSC 55141|3-OXOFRIEDELANE|FRIEDELIN MI|Friedelin| technical grade|(4R|4aS|6aS|6aS|6bR|8aR|12aR|14aS|14bS)-4|4a|6a|6b|8a|11|11|14a-octamethyl-2|4|5|6|6a|7|8|9|10|12|12a|13|14|14b-tetradecahydro-1H-picen-3-one|Friedelin| analytical standard|SCHEMBL193053|D:A-Friedooleanan-3-one (VAN)|OFMXGFHWLZPCFL-SVRPQWSVSA-N|DTXSID101015732|HY-N4110|BDBM50241943|MFCD00017296|AKOS015897124|CCG-208470|MS-27536|CS-0032118|NS00043099|C08626|Q15410972|24|25|26-TRINOROLEANAN-3-ONE| 5|9|13-TRIMETHYL-| (4.BETA.|5.BETA.|8.ALPHA.|9.BETA.|10.ALPHA.|13.ALPHA.|14.BETA.)-|3(2H)-Picenone| eicosahydro-4|4a|6b|8a|11|11|12b|14a-octamethyl-| (4R|4aS|6aS|6bR|8aR|12aR|12bS|14aS|14bS)-|3(2H)-PICENONE| EICOSAHYDRO-4|4A|6B|8A|11|11|12B|14A-OCTAMETHYL-| (4R-(4.ALPHA.|4A.ALPHA.|6A.BETA.|6B.ALPHA.|8A.ALPHA.|12A.ALPHA.|12B.BETA.|14A.ALPHA.|14B.BETA.))-|friedelin

>  <cas>  (168) 
559-74-0

$$$$

     RDKit          2D

 32 36  0  0  0  0  0  0  0  0999 V2000
   -6.2483    1.7052    0.0000 C   0  0  0  0  0  0  0  0  0  0  0  0
   -5.4187    0.4555    0.0000 C   0  0  0  0  0  0  0  0  0  0  0  0
   -6.0861   -0.8878    0.0000 C   0  0  0  0  0  0  0  0  0  0  0  0
   -7.5832   -0.9815    0.0000 O   0  0  0  0  0  0  0  0  0  0  0  0
   -5.2565   -2.1375    0.0000 C   0  0  0  0  0  0  0  0  0  0  0  0
   -3.7594   -2.0439    0.0000 C   0  0  0  0  0  0  0  0  0  0  0  0
   -3.0920   -0.7005    0.0000 C   0  0  0  0  0  0  0  0  0  0  0  0
   -3.9216    0.5491    0.0000 C   0  0  0  0  0  0  0  0  0  0  0  0
   -4.7512    1.7988    0.0000 C   0  0  0  0  0  0  0  0  0  0  0  0
   -3.2542    1.8925    0.0000 C   0  0  0  0  0  0  0  0  0  0  0  0
   -1.7571    1.9861    0.0000 C   0  0  0  0  0  0  0  0  0  0  0  0
   -0.9274    0.7364    0.0000 C   0  0  0  0  0  0  0  0  0  0  0  0
   -1.5949   -0.6069    0.0000 C   0  0  0  0  0  0  0  0  0  0  0  0
   -2.2623   -1.9502    0.0000 C   0  0  0  0  0  0  0  0  0  0  0  0
   -0.7652   -1.8566    0.0000 C   0  0  0  0  0  0  0  0  0  0  0  0
    0.7318   -1.7629    0.0000 C   0  0  0  0  0  0  0  0  0  0  0  0
    1.3993   -0.4196    0.0000 C   0  0  0  0  0  0  0  0  0  0  0  0
    2.2289   -1.6693    0.0000 C   0  0  0  0  0  0  0  0  0  0  0  0
    2.8963   -0.3259    0.0000 C   0  0  0  0  0  0  0  0  0  0  0  0
    3.7260   -1.5756    0.0000 C   0  0  0  0  0  0  0  0  0  0  0  0
    5.2231   -1.4820    0.0000 C   0  0  0  0  0  0  0  0  0  0  0  0
    6.6619   -1.9060    0.0000 C   0  0  0  0  0  0  0  0  0  0  0  0
    5.0553   -2.9726    0.0000 C   0  0  0  0  0  0  0  0  0  0  0  0
    5.8905   -0.1386    0.0000 C   0  0  0  0  0  0  0  0  0  0  0  0
    5.0608    1.1110    0.0000 C   0  0  0  0  0  0  0  0  0  0  0  0
    3.5638    1.0174    0.0000 C   0  0  0  0  0  0  0  0  0  0  0  0
    4.2312    2.3607    0.0000 C   0  0  0  0  0  0  0  0  0  0  0  0
    5.7283    2.4544    0.0000 O   0  0  0  0  0  0  0  0  0  0  0  0
    2.7341    2.2671    0.0000 C   0  0  0  0  0  0  0  0  0  0  0  0
    1.2371    2.1734    0.0000 C   0  0  0  0  0  0  0  0  0  0  0  0
    0.5696    0.8301    0.0000 C   0  0  0  0  0  0  0  0  0  0  0  0
   -0.2600    2.0798    0.0000 C   0  0  0  0  0  0  0  0  0  0  0  0
  2  1  1  6
  2  3  1  0
  3  4  2  0
  3  5  1  0
  5  6  1  0
  7  6  1  6
  7  8  1  0
  8  9  1  6
  8 10  1  0
 10 11  1  0
 12 11  1  6
 12 13  1  0
 13 14  1  6
 13 15  1  0
 15 16  1  0
 16 17  1  0
 17 18  1  1
 17 19  1  0
 19 20  1  1
 20 21  1  0
 21 22  1  0
 21 23  1  0
 21 24  1  0
 24 25  1  0
 25 26  1  0
 26 27  1  6
 27 28  2  0
 26 29  1  0
 29 30  1  0
 30 31  1  0
 31 32  1  6
  8  2  1  0
 31 12  1  0
 13  7  1  0
 31 17  1  0
 26 19  1  0
M  END
>  <identifier>  (169) 
CNP0344058.1

>  <canonical_smiles>  (169) 
C[C@H]1C(=O)CC[C@@H]2[C@]1(C)CC[C@H]1[C@@]2(C)CC[C@@]2(C)[C@@H]3CC(C)(C)CC[C@]3(C=O)CC[C@]12C

>  <standard_inchi>  (169) 
InChI=1S/C30H48O2/c1-20-21(32)8-9-22-26(20,4)11-10-23-27(22,5)13-14-29(7)24-18-25(2,3)12-16-30(24,19-31)17-15-28(23,29)6/h19-20,22-24H,8-18H2,1-7H3/t20-,22+,23-,24-,26+,27-,28+,29-,30+/m0/s1

>  <standard_inchi_key>  (169) 
ONRNCDHSZVITNY-TWWFCBCGSA-N

>  <name>  (169) 
Canophyllal

>  <iupac_name>  (169) 
(4~{a}~{S},6~{a}~{S},6~{a}~{R},6~{b}~{S},8~{a}~{S},9~{R},12~{a}~{S},14~{a}~{S},14~{b}~{S})-2,2,6~{a},6~{a},8~{a},9,14~{a}-heptamethyl-10-oxo-3,4,5,6,6~{b},7,8,9,11,12,12~{a},13,14,14~{b}-tetradecahydro-1~{H}-picene-4~{a}-carbaldehyde

>  <annotation_level>  (169) 
5

>  <total_atom_count>  (169) 
80

>  <heavy_atom_count>  (169) 
32

>  <molecular_weight>  (169) 
440.71

>  <exact_molecular_weight>  (169) 
440.36543

>  <molecular_formula>  (169) 
C30H48O2

>  <alogp>  (169) 
7.64

>  <topological_polar_surface_area>  (169) 
34.14

>  <rotatable_bond_count>  (169) 
1

>  <hydrogen_bond_acceptors>  (169) 
2

>  <hydrogen_bond_donors>  (169) 
0

>  <hydrogen_bond_acceptors_lipinski>  (169) 
2

>  <hydrogen_bond_donors_lipinski>  (169) 
0

>  <lipinski_rule_of_five_violations>  (169) 
1

>  <aromatic_rings_count>  (169) 
0

>  <qed_drug_likeliness>  (169) 
0.39

>  <formal_charge>  (169) 
0

>  <fractioncsp3>  (169) 
0.93

>  <number_of_minimal_rings>  (169) 
5

>  <van_der_walls_volume>  (169) 
446.65

>  <contains_sugar>  (169) 
False

>  <contains_ring_sugars>  (169) 
False

>  <contains_linear_sugars>  (169) 
False

>  <murcko_framework>  (169) 
C1CCC2C(C1)CCC3C2CCC4C5CCCCC5CCC43

>  <np_likeness>  (169) 
2.64

>  <chemical_class>  (169) 
Prenol lipids

>  <chemical_sub_class>  (169) 
Triterpenoids

>  <chemical_super_class>  (169) 
Lipids and lipid-like molecules

>  <direct_parent_classification>  (169) 
Taraxerane, multiflorane, glutinane and friedelane triterpenoids

>  <np_classifier_pathway>  (169) 
Terpenoids

>  <np_classifier_superclass>  (169) 
Triterpenoids

>  <np_classifier_class>  (169) 
Friedelane triterpenoids

>  <np_classifier_is_glycoside>  (169) 
False

>  <organisms>  (169) 
Alchornea cordifolia|Calophyllum inophyllum|Hippocratea excelsa|Leptosyne bigelovii|Micranthemum umbrosum|Ormosia flava|Phlegmariurus fordii|Podostictina degelii|Sideritis romana|Stevia origanoides|Syzygium formosanum|Trichilia claussenii|Tripterygium hypoglaucum|Tripterygium wilfordii

>  <collections>  (169) 
Australian natural products|BIOFACQUIM|CMAUP (cCollective molecular activities of useful plants)|ChEBI NPs|KNApSaCK|Latin America dataset|NPASS|Super Natural II|TIPdb (database of Taiwan indigenous plants)

>  <dois>  (169) 
10.1016/S0378-8741(01)00414-7|10.1016/j.fitote.2010.02.005|10.1016/j.jep.2015.12.043|10.1016/s0040-4020(01)82592-8|10.1021/np980313w|10.1080/10286020500172665|10.1248/cpb.56.374

>  <synonyms>  (169) 
14440-40-5|28-Oxo-D:A-friedooleanan-3-one|(4aS|6aS|6aR|6bS|8aS|9R|12aS|14aS|14bS)-2|2|6a|6a|8a|9|14a-heptamethyl-10-oxo-3|4|5|6|6b|7|8|9|11|12|12a|13|14|14b-tetradecahydro-1H-picene-4a-carbaldehyde|3-oxofriedelan-28-al|friedelane-3-one-28-al|CHEBI:132345|HY-N8428|AKOS040761455|CS-0144148|(4aS|6aR|6bS|8aS|9R|12aS|12bS|14aS|14bS)-2|2|6a|8a|9|12b|14a-heptamethyl-10-oxoicosahydropicene-4a(2H)-carbaldehyde|Canophyllal

>  <cas>  (169) 
14440-40-5

$$$$

     RDKit          2D

 28 31  0  0  0  0  0  0  0  0999 V2000
   -4.0832   -4.1495    0.0000 C   0  0  0  0  0  0  0  0  0  0  0  0
   -2.7452   -3.4715    0.0000 O   0  0  0  0  0  0  0  0  0  0  0  0
   -2.6633   -1.9737    0.0000 C   0  0  0  0  0  0  0  0  0  0  0  0
   -3.9195   -1.1540    0.0000 C   0  0  0  0  0  0  0  0  0  0  0  0
   -3.8377    0.3438    0.0000 C   0  0  0  0  0  0  0  0  0  0  0  0
   -5.0939    1.1636    0.0000 O   0  0  0  0  0  0  0  0  0  0  0  0
   -2.4997    1.0218    0.0000 C   0  0  0  0  0  0  0  0  0  0  0  0
   -2.4178    2.5196    0.0000 C   0  0  0  0  0  0  0  0  0  0  0  0
   -3.6740    3.3393    0.0000 O   0  0  0  0  0  0  0  0  0  0  0  0
   -1.0798    3.1976    0.0000 C   0  0  0  0  0  0  0  0  0  0  0  0
    0.1764    2.3778    0.0000 C   0  0  0  0  0  0  0  0  0  0  0  0
    1.5144    3.0559    0.0000 O   0  0  0  0  0  0  0  0  0  0  0  0
    1.5962    4.5536    0.0000 C   0  0  0  0  0  0  0  0  0  0  0  0
    0.0945    0.8801    0.0000 C   0  0  0  0  0  0  0  0  0  0  0  0
   -1.2435    0.2021    0.0000 C   0  0  0  0  0  0  0  0  0  0  0  0
   -1.3253   -1.2957    0.0000 C   0  0  0  0  0  0  0  0  0  0  0  0
   -0.0691   -2.1155    0.0000 C   0  0  0  0  0  0  0  0  0  0  0  0
    1.2689   -1.4374    0.0000 C   0  0  0  0  0  0  0  0  0  0  0  0
    1.1871   -2.9352    0.0000 C   0  0  0  0  0  0  0  0  0  0  0  0
    2.5251   -2.2572    0.0000 C   0  0  0  0  0  0  0  0  0  0  0  0
    2.4433   -3.7550    0.0000 O   0  0  0  0  0  0  0  0  0  0  0  0
    3.8631   -1.5792    0.0000 C   0  0  0  0  0  0  0  0  0  0  0  0
    5.1193   -2.3989    0.0000 O   0  0  0  0  0  0  0  0  0  0  0  0
    3.9449   -0.0814    0.0000 C   0  0  0  0  0  0  0  0  0  0  0  0
    2.6888    0.7383    0.0000 C   0  0  0  0  0  0  0  0  0  0  0  0
    2.7706    2.2361    0.0000 O   0  0  0  0  0  0  0  0  0  0  0  0
    4.1086    2.9141    0.0000 C   0  0  0  0  0  0  0  0  0  0  0  0
    1.3507    0.0603    0.0000 C   0  0  0  0  0  0  0  0  0  0  0  0
  1  2  1  0
  2  3  1  0
  3  4  2  0
  4  5  1  0
  5  6  2  0
  5  7  1  0
  7  8  2  0
  8  9  1  0
  8 10  1  0
 10 11  2  0
 11 12  1  0
 12 13  1  0
 11 14  1  0
 14 15  2  0
 15 16  1  0
 16 17  2  0
 17 18  1  0
 18 19  1  6
 18 20  1  0
 20 21  1  1
 20 22  1  0
 22 23  2  0
 22 24  1  0
 24 25  2  0
 25 26  1  0
 26 27  1  0
 28 25  1  1
 16  3  1  0
 28 18  1  0
 15  7  1  0
 28 14  1  0
M  END
>  <identifier>  (170) 
CNP0183089.1

>  <canonical_smiles>  (170) 
COC1=CC(=O)C2=C(O)C=C(OC)C3=C2C1=C[C@]1(C)[C@H](O)C(=O)C=C(OC)[C@H]31

>  <standard_inchi>  (170) 
InChI=1S/C21H20O7/c1-21-8-9-13(26-2)5-10(22)17-11(23)6-14(27-3)18(16(9)17)19(21)15(28-4)7-12(24)20(21)25/h5-8,19-20,23,25H,1-4H3/t19-,20-,21+/m1/s1

>  <standard_inchi_key>  (170) 
BEEAOSMHUSDOTP-NJYVYQBISA-N

>  <name>  (170) 
Minimoidione A

>  <iupac_name>  (170) 
(7~{a}~{S},8~{S},11~{a}~{S})-3,8-dihydroxy-1,6,11-trimethoxy-7~{a}-methyl-8,11~{a}-dihydrobenzo[a]phenalene-4,9-dione

>  <annotation_level>  (170) 
5

>  <total_atom_count>  (170) 
48

>  <heavy_atom_count>  (170) 
28

>  <molecular_weight>  (170) 
384.38

>  <exact_molecular_weight>  (170) 
384.1209

>  <molecular_formula>  (170) 
C21H20O7

>  <alogp>  (170) 
2.09

>  <topological_polar_surface_area>  (170) 
102.29

>  <rotatable_bond_count>  (170) 
3

>  <hydrogen_bond_acceptors>  (170) 
7

>  <hydrogen_bond_donors>  (170) 
2

>  <hydrogen_bond_acceptors_lipinski>  (170) 
7

>  <hydrogen_bond_donors_lipinski>  (170) 
2

>  <lipinski_rule_of_five_violations>  (170) 
0

>  <aromatic_rings_count>  (170) 
1

>  <qed_drug_likeliness>  (170) 
0.82

>  <formal_charge>  (170) 
0

>  <fractioncsp3>  (170) 
0.33

>  <number_of_minimal_rings>  (170) 
4

>  <van_der_walls_volume>  (170) 
328.66

>  <contains_sugar>  (170) 
False

>  <contains_ring_sugars>  (170) 
False

>  <contains_linear_sugars>  (170) 
False

>  <murcko_framework>  (170) 
c1cc2c3C(C=CC2)=CC4CCC=CC4c3c1

>  <np_likeness>  (170) 
2.11

>  <chemical_class>  (170) 
Phenanthrenes and derivatives

>  <chemical_sub_class>  (170) 
Phenanthrenes and derivatives

>  <chemical_super_class>  (170) 
Benzenoids

>  <direct_parent_classification>  (170) 
Phenanthrenes and derivatives

>  <np_classifier_pathway>  (170) 
Polyketides

>  <np_classifier_superclass>  (170) 
nan

>  <np_classifier_class>  (170) 
nan

>  <np_classifier_is_glycoside>  (170) 
False

>  <organisms>  (170) 
Preussia minimoides

>  <collections>  (170) 
BIOFACQUIM|Latin America dataset|NPASS|NPAtlas

>  <dois>  (170) 
10.1021/acs.jnatprod.6b00574

>  <synonyms>  (170) 
CHEMBL4099935|CHEBI:206813|(7aS|8S|11aS)-3|8-dihydroxy-1|6|11-trimethoxy-7a-methyl-8|11a-dihydrobenzoaphenalene-4|9-dione|Minimoidiones A

>  <cas>  (170) 
nan

$$$$

     RDKit          2D

 32 36  0  0  0  0  0  0  0  0999 V2000
   -6.2483    1.7052    0.0000 C   0  0  0  0  0  0  0  0  0  0  0  0
   -5.4187    0.4555    0.0000 C   0  0  0  0  0  0  0  0  0  0  0  0
   -6.0861   -0.8878    0.0000 C   0  0  0  0  0  0  0  0  0  0  0  0
   -7.5832   -0.9815    0.0000 O   0  0  0  0  0  0  0  0  0  0  0  0
   -5.2565   -2.1375    0.0000 C   0  0  0  0  0  0  0  0  0  0  0  0
   -3.7594   -2.0439    0.0000 C   0  0  0  0  0  0  0  0  0  0  0  0
   -3.0920   -0.7005    0.0000 C   0  0  0  0  0  0  0  0  0  0  0  0
   -3.9216    0.5491    0.0000 C   0  0  0  0  0  0  0  0  0  0  0  0
   -4.7512    1.7988    0.0000 C   0  0  0  0  0  0  0  0  0  0  0  0
   -3.2542    1.8925    0.0000 C   0  0  0  0  0  0  0  0  0  0  0  0
   -1.7571    1.9861    0.0000 C   0  0  0  0  0  0  0  0  0  0  0  0
   -0.9274    0.7364    0.0000 C   0  0  0  0  0  0  0  0  0  0  0  0
   -1.5949   -0.6069    0.0000 C   0  0  0  0  0  0  0  0  0  0  0  0
   -2.2623   -1.9502    0.0000 C   0  0  0  0  0  0  0  0  0  0  0  0
   -0.7652   -1.8566    0.0000 C   0  0  0  0  0  0  0  0  0  0  0  0
    0.7318   -1.7629    0.0000 C   0  0  0  0  0  0  0  0  0  0  0  0
    1.3993   -0.4196    0.0000 C   0  0  0  0  0  0  0  0  0  0  0  0
    2.2289   -1.6693    0.0000 C   0  0  0  0  0  0  0  0  0  0  0  0
    2.8963   -0.3259    0.0000 C   0  0  0  0  0  0  0  0  0  0  0  0
    3.7260   -1.5756    0.0000 C   0  0  0  0  0  0  0  0  0  0  0  0
    5.2231   -1.4820    0.0000 C   0  0  0  0  0  0  0  0  0  0  0  0
    6.6619   -1.9060    0.0000 C   0  0  0  0  0  0  0  0  0  0  0  0
    5.0553   -2.9726    0.0000 C   0  0  0  0  0  0  0  0  0  0  0  0
    5.8905   -0.1386    0.0000 C   0  0  0  0  0  0  0  0  0  0  0  0
    5.0608    1.1110    0.0000 C   0  0  0  0  0  0  0  0  0  0  0  0
    3.5638    1.0174    0.0000 C   0  0  0  0  0  0  0  0  0  0  0  0
    4.2312    2.3607    0.0000 C   0  0  0  0  0  0  0  0  0  0  0  0
    5.7283    2.4544    0.0000 O   0  0  0  0  0  0  0  0  0  0  0  0
    2.7341    2.2671    0.0000 C   0  0  0  0  0  0  0  0  0  0  0  0
    1.2371    2.1734    0.0000 C   0  0  0  0  0  0  0  0  0  0  0  0
    0.5696    0.8301    0.0000 C   0  0  0  0  0  0  0  0  0  0  0  0
   -0.2600    2.0798    0.0000 C   0  0  0  0  0  0  0  0  0  0  0  0
  2  1  1  6
  2  3  1  0
  3  4  2  0
  3  5  1  0
  5  6  1  0
  7  6  1  6
  7  8  1  0
  8  9  1  6
  8 10  1  0
 10 11  1  0
 12 11  1  6
 12 13  1  0
 13 14  1  6
 13 15  1  0
 15 16  1  0
 16 17  1  0
 17 18  1  1
 17 19  1  0
 19 20  1  1
 20 21  1  0
 21 22  1  0
 21 23  1  0
 21 24  1  0
 24 25  1  0
 25 26  1  0
 26 27  1  6
 27 28  1  0
 26 29  1  0
 29 30  1  0
 30 31  1  0
 31 32  1  6
  8  2  1  0
 31 12  1  0
 13  7  1  0
 31 17  1  0
 26 19  1  0
M  END
>  <identifier>  (171) 
CNP0186926.1

>  <canonical_smiles>  (171) 
C[C@H]1C(=O)CC[C@@H]2[C@]1(C)CC[C@H]1[C@@]2(C)CC[C@@]2(C)[C@@H]3CC(C)(C)CC[C@]3(CO)CC[C@]12C

>  <standard_inchi>  (171) 
InChI=1S/C30H50O2/c1-20-21(32)8-9-22-26(20,4)11-10-23-27(22,5)13-14-29(7)24-18-25(2,3)12-16-30(24,19-31)17-15-28(23,29)6/h20,22-24,31H,8-19H2,1-7H3/t20-,22+,23-,24-,26+,27-,28+,29-,30+/m0/s1

>  <standard_inchi_key>  (171) 
YPWQSKQSNNTXOL-TWWFCBCGSA-N

>  <name>  (171) 
Canophyllol

>  <iupac_name>  (171) 
(4~{R},4~{a}~{S},6~{a}~{S},6~{a}~{S},6~{b}~{R},8~{a}~{S},12~{a}~{S},14~{a}~{S},14~{b}~{S})-8~{a}-(hydroxymethyl)-4,4~{a},6~{a},6~{b},11,11,14~{a}-heptamethyl-2,4,5,6,6~{a},7,8,9,10,12,12~{a},13,14,14~{b}-tetradecahydro-1~{H}-picen-3-one

>  <annotation_level>  (171) 
5

>  <total_atom_count>  (171) 
82

>  <heavy_atom_count>  (171) 
32

>  <molecular_weight>  (171) 
442.73

>  <exact_molecular_weight>  (171) 
442.38108

>  <molecular_formula>  (171) 
C30H50O2

>  <alogp>  (171) 
7.43

>  <topological_polar_surface_area>  (171) 
37.30

>  <rotatable_bond_count>  (171) 
1

>  <hydrogen_bond_acceptors>  (171) 
2

>  <hydrogen_bond_donors>  (171) 
1

>  <hydrogen_bond_acceptors_lipinski>  (171) 
2

>  <hydrogen_bond_donors_lipinski>  (171) 
1

>  <lipinski_rule_of_five_violations>  (171) 
1

>  <aromatic_rings_count>  (171) 
0

>  <qed_drug_likeliness>  (171) 
0.46

>  <formal_charge>  (171) 
0

>  <fractioncsp3>  (171) 
0.97

>  <number_of_minimal_rings>  (171) 
5

>  <van_der_walls_volume>  (171) 
451.68

>  <contains_sugar>  (171) 
False

>  <contains_ring_sugars>  (171) 
False

>  <contains_linear_sugars>  (171) 
False

>  <murcko_framework>  (171) 
C1CCC2C(C1)CCC3C2CCC4C5CCCCC5CCC43

>  <np_likeness>  (171) 
2.66

>  <chemical_class>  (171) 
Prenol lipids

>  <chemical_sub_class>  (171) 
Triterpenoids

>  <chemical_super_class>  (171) 
Lipids and lipid-like molecules

>  <direct_parent_classification>  (171) 
Taraxerane, multiflorane, glutinane and friedelane triterpenoids

>  <np_classifier_pathway>  (171) 
Terpenoids

>  <np_classifier_superclass>  (171) 
Triterpenoids

>  <np_classifier_class>  (171) 
Friedelane triterpenoids

>  <np_classifier_is_glycoside>  (171) 
False

>  <organisms>  (171) 
Abies koreana|Aplysilla spinifera|Calophyllum inophyllum|Celastrus vulcanicola|Crocus sieberi|Curculigo orchioides|Eugenia myrcianthes|Gynochthodes officinalis|Hippocratea excelsa|Iotrochota baculifera|Jacobaea persoonii|Lomatium dissectum|Maytenus laevis|Montanoa karwinskii|Nocardia alba|Oreodoxa regia|Ptilota filicina|Ramalina paludosa|Salix matsudana|Senecio rosmarinifolius|Sinularia hirta|Strychnos decussata|Suberites domuncula|Tetracera indica|Tripterygium wilfordii|Verbena bonariensis|Xanthocercis zambesiaca

>  <collections>  (171) 
Australian natural products|BIOFACQUIM|CMAUP (cCollective molecular activities of useful plants)|Latin America dataset|NPASS|Specs Natural Products|Super Natural II|ZINC NP

>  <dois>  (171) 
10.1016/S0378-8741(01)00414-7|10.1016/s0040-4020(01)82592-8|10.1021/jf1022115|10.1021/np040006s|10.1021/np50081a010

>  <synonyms>  (171) 
14440-41-6|28-Hydroxy-D:A-friedooleanan-3-one|(4R|4aS|6aS|6aS|6bR|8aS|12aS|14aS|14bS)-8a-(hydroxymethyl)-4|4a|6a|6b|11|11|14a-heptamethyl-2|4|5|6|6a|7|8|9|10|12|12a|13|14|14b-tetradecahydro-1H-picen-3-one|28-Hydroxyfriedelin|CHEMBL483012|SCHEMBL4413819|DTXSID101035465|AKOS040740310|Canophyllol

>  <cas>  (171) 
14440-41-6

$$$$

     RDKit          2D

 21 23  0  0  0  0  0  0  0  0999 V2000
   -5.5618   -2.5364    0.0000 O   0  0  0  0  0  0  0  0  0  0  0  0
   -4.5413   -1.4371    0.0000 C   0  0  0  0  0  0  0  0  0  0  0  0
   -4.9831   -0.0036    0.0000 C   0  0  0  0  0  0  0  0  0  0  0  0
   -3.9626    1.0957    0.0000 C   0  0  0  0  0  0  0  0  0  0  0  0
   -4.4044    2.5292    0.0000 O   0  0  0  0  0  0  0  0  0  0  0  0
   -2.5003    0.7616    0.0000 C   0  0  0  0  0  0  0  0  0  0  0  0
   -1.4798    1.8610    0.0000 C   0  0  0  0  0  0  0  0  0  0  0  0
   -0.0175    1.5269    0.0000 C   0  0  0  0  0  0  0  0  0  0  0  0
    1.0030    2.6262    0.0000 O   0  0  0  0  0  0  0  0  0  0  0  0
    0.4243    0.0934    0.0000 C   0  0  0  0  0  0  0  0  0  0  0  0
    1.8866   -0.2407    0.0000 C   0  0  0  0  0  0  0  0  0  0  0  0
    2.3285   -1.6741    0.0000 C   0  0  0  0  0  0  0  0  0  0  0  0
    3.7908   -2.0083    0.0000 C   0  0  0  0  0  0  0  0  0  0  0  0
    4.8113   -0.9089    0.0000 C   0  0  0  0  0  0  0  0  0  0  0  0
    6.2736   -1.2430    0.0000 O   0  0  0  0  0  0  0  0  0  0  0  0
    4.3695    0.5246    0.0000 C   0  0  0  0  0  0  0  0  0  0  0  0
    5.3900    1.6239    0.0000 O   0  0  0  0  0  0  0  0  0  0  0  0
    2.9071    0.8587    0.0000 C   0  0  0  0  0  0  0  0  0  0  0  0
   -0.5962   -1.0059    0.0000 O   0  0  0  0  0  0  0  0  0  0  0  0
   -2.0585   -0.6718    0.0000 C   0  0  0  0  0  0  0  0  0  0  0  0
   -3.0790   -1.7712    0.0000 C   0  0  0  0  0  0  0  0  0  0  0  0
  1  2  1  0
  2  3  2  0
  3  4  1  0
  4  5  1  0
  4  6  2  0
  6  7  1  0
  7  8  1  0
  8  9  1  1
  8 10  1  0
 10 11  1  1
 11 12  2  0
 12 13  1  0
 13 14  2  0
 14 15  1  0
 14 16  1  0
 16 17  1  0
 16 18  2  0
 10 19  1  0
 19 20  1  0
 20 21  2  0
 21  2  1  0
 20  6  1  0
 18 11  1  0
M  END
>  <identifier>  (172) 
CNP0293352.2

>  <canonical_smiles>  (172) 
OC1=CC(O)=C2C[C@@H](O)[C@@H](C3=CC=C(O)C(O)=C3)OC2=C1

>  <standard_inchi>  (172) 
InChI=1S/C15H14O6/c16-8-4-11(18)9-6-13(20)15(21-14(9)5-8)7-1-2-10(17)12(19)3-7/h1-5,13,15-20H,6H2/t13-,15-/m1/s1

>  <standard_inchi_key>  (172) 
PFTAWBLQPZVEMU-UKRRQHHQSA-N

>  <name>  (172) 
(-)-Epicatechin

>  <iupac_name>  (172) 
(2~{R},3~{R})-2-(3,4-dihydroxyphenyl)chromane-3,5,7-triol

>  <annotation_level>  (172) 
5

>  <total_atom_count>  (172) 
35

>  <heavy_atom_count>  (172) 
21

>  <molecular_weight>  (172) 
290.27

>  <exact_molecular_weight>  (172) 
290.07904

>  <molecular_formula>  (172) 
C15H14O6

>  <alogp>  (172) 
1.55

>  <topological_polar_surface_area>  (172) 
110.38

>  <rotatable_bond_count>  (172) 
1

>  <hydrogen_bond_acceptors>  (172) 
6

>  <hydrogen_bond_donors>  (172) 
5

>  <hydrogen_bond_acceptors_lipinski>  (172) 
6

>  <hydrogen_bond_donors_lipinski>  (172) 
5

>  <lipinski_rule_of_five_violations>  (172) 
0

>  <aromatic_rings_count>  (172) 
2

>  <qed_drug_likeliness>  (172) 
0.51

>  <formal_charge>  (172) 
0

>  <fractioncsp3>  (172) 
0.20

>  <number_of_minimal_rings>  (172) 
3

>  <van_der_walls_volume>  (172) 
244.61

>  <contains_sugar>  (172) 
False

>  <contains_ring_sugars>  (172) 
False

>  <contains_linear_sugars>  (172) 
False

>  <murcko_framework>  (172) 
O1c2ccccc2CCC1c3ccccc3

>  <np_likeness>  (172) 
2.30

>  <chemical_class>  (172) 
Flavonoids

>  <chemical_sub_class>  (172) 
Flavans

>  <chemical_super_class>  (172) 
Phenylpropanoids and polyketides

>  <direct_parent_classification>  (172) 
Catechins

>  <np_classifier_pathway>  (172) 
Shikimates and Phenylpropanoids

>  <np_classifier_superclass>  (172) 
Flavonoids

>  <np_classifier_class>  (172) 
Flavan-3-ols

>  <np_classifier_is_glycoside>  (172) 
False

>  <organisms>  (172) 
Aaptos aaptos|Abedus herberti|Abies bifolia|Abutilon theophrasti|Acacia adunca|Acacia arabica|Acacia baileyana|Acacia calamifolia|Acacia catechu|Acacia clunies-rossiae|Acacia concurrens|Acacia confusa|Acacia dealbata|Acacia deanei|Acacia falciformis|Acacia fimbriata|Acacia homalophylla|Acacia ixiophylla|Acacia lanigera|Acacia mabellae|Acacia mearnsii|Acacia melanoxylon|Acacia mollifolia|Acacia nilotica|Acacia obtusifolia|Acacia oswaldii|Acacia pendula|Acacia pycnantha|Acacia retinodes|Acacia rigens|Acacia verniciflua|Acanthella acuta|Acanthophyllum elatius|Acanthospermum glabratum|Acer nikoense|Aconitum nevadense|Aconitum pseudohuiliense|Aconitum sachalinense|Acrotrema uniflorum|Actinidia arguta|Actinidia chinensis|Actinidia deliciosa|Actinopyga agassizi|Adenopeltis colliguaya|Adiantum lunulatum|Aesculus californica|Aesculus carnea|Aglaia formosana|Aglaia laxiflora|Agrobacterium tumefaciens|Agrotis fucosa|Alangium grisolleoides|Alangium premnifolium|Alcyonium molle|Alexandrium hiranoi|Alkanna cappadocica|Allium rosenorum|Aloe africana|Aloe ferox|Aloe spicata|Aloe vera|Alseodaphne corneri|Alstonia deplanchei|Alstonia spathulata|Alstonia undulifolia|Amanita cokeri|Amaranthus hypochondriacus|Amathia pinnata|Ampelopsis japonica|Anacardium occidentale|Anacystis montana|Ancistrocladus korupensis|Angelica pubescens|Angelica taiwaniana|Angelica tarokoensis|Annella reticulata|Annona cornifolia|Annona impressivenia|Anthelia juratzkana|Aphis graminum|Aphis pini|Aplidium tabascum|Aplophyllum popovii|Aplysia parvula|Aplysia punctata|Apocynum venetum|Arabidopsis thaliana|Arbutus unedo|Arca noae|Arcyria denudata|Areca catechu|Artemisia assoana|Artemisia carvifolia|Artemisia dentata|Artemisia incanescens|Artemisia rehan|Artemisia schimperi|Arum alpinum|Aspergillus arenarius|Aspergillus desertorum|Aspergillus fischeri|Aspergillus quadrilineatus|Aspergillus unguis|Aster bellidiastrum|Asteracantha longifolia|Asteriscus aquaticus|Asteriscus graveolens|Asterospicularia laurae|Astragalus sempervirens|Atalantia racemosa|Atractylodes macrocephala|Atraphaxis frutescens|Atylosia trinervia|Aulacocephalus temmincki|Aulosira fertilissima|Avena sativa|Averrhoa carambola|Averrhoa carambola L.|Avrainvillea longicaulis|Baccharis megapotamica|Bacillus subtilis|Barbarea verna|Bauhinia racemosa|Bellium bellidioides|Bersama yangambiensis|Betula platyphylla|Bidens sulphureus|Bishovia boliviensis|Bituminaria bituminosa|Blastochloris viridis|Blitum virgatum|Boehmeria nivea|Boletus pini|Bombax ceiba|Bombus hortorum|Bombus muscorum|Boronia coerulescens|Bragantia wallichii|Brevibacterium linens|Brosimopsis acutifolium|Bryum argenteum|Buddleja cordata|Buphane fischeri|Byrsonima coccolobifolia|Cacalia bicolor|Callicarpa japonica|Callicarpa maingayi|Calliphora vicina|Caloboletus calopus|Calophyllum enervosum|Calostephane divaricata|Calycolpus warszewiczianus|Camellia japonica|Camellia sinensis|Camellia sinensis (L.) O.KUNTZE|Capnoides sempervirens|Capparis ovata|Caragana aurantiaca|Carya illinoinensis|Cassia fistula|Cassia javanica|Cassine papillosa|Castanopsis sclerophylla|Celastrus orbiculatus|Centaurea calcitrapa|Centaurea seridis|Centella asiatica|Centrosema pascuorum|Cephalaria uralensis|Ceratocystis clavigera|Ceratozamia fuscoviridis|Cereus candicans|Cereus weberi|Chaenomeles japonica|Chaenomeles sinensis|Chaenomeles speciosa|Charpentiera obovata|Cheiropteris palmatopedata|Chelonia japonica|Chromatium okenii|Chromodoris lochi|Chrozophora obliqua|Chrysothamnus parryi|Cinamomum cassia|Cinchona succirubra|Cinnamomum aromaticum|Cinnamomum cassia|Cinnamomum cassia Blume.|Cinnamomum obtusifolium Nees.|Cinnamomum sieboldii|Cinnamomum subavenium|Cistus salviifolius|Citrus glauca|Cladonia fallax|Cladrastis platycarpa|Clathria prolifera|Cleome chrysantha|Clione antarctica|Cneorum pulverulentum|Codium decorticatum|Cola nitida|Coleogyne ramosissima Torr.|Coleus esquirolii|Coleus garckeanus|Colobocentrotus atratus|Colophospermum mopane|Combretum quadrangulare|Conocephalum japonicum|Conoideocrella luteorostrata|Consolida ajacis|Consolida hohenackeri|Conus pulicarius|Conus tribblei|Convallaria keiskei|Coprinellus flocculosus|Coprosma areolata|Cordylanthus kingii|Cortinarius orellanus|Cotyledon secunda|Cowania mexicana|Crambe tatarica|Crataegus monogyna|Crataegus pinnatifida|Crinipellis scabella|Critonia quadrangularis|Crotalaria aegyptiaca|Croton cumingii|Croton lechleri Mull.Arg.|Croton montevidensis|Cryptocarya alba|Cryptotermes cynocephalus|Cucumis melo|Curarea candicans|Cydonia oblonga|Cylindrospermopsis raciborskii|Cylindrospermum muscicola|Cynara humilis|Cynomorium songaricum|Cyperus papyrus|Cystophora scalaris|Dacrydium fonki|Dalbergia assamica|Dalbergia frutescens|Dalbergia stipulacea|Dasycladus vermicularis|Datisca glomerata|Daucus carota|Davallia mariesii|Delphinium andersoni|Delphinium fangshanense|Dendrodoris tuberculosa|Dermolepida albohirtum|Dicoma capensis|Dicranopteris pedata|Didemnum chartaceum|Didymium bahiense|Digitalis isabelliana|Dimorphotheca aurantiaca|Dinemasporium strigosum|Dioscorea olfersiana|Diospyros eriantha|Diphasia angolensis|Diplodia natalensis|Disynaphia halimifolia|Dolomiaea souliei|Doodia picta|Drechslera avenae|Drynaria fortunei|Drynaria fortunei Kunze J.SM.|Dumortiera hirsuta|Ecballium elaterium|Ecdysanthera utilis|Echinochloa crus-galli|Echinops transiliensis|Echinosophora koreensis|Echinus microtuberculatus|Echium pininana|Elaeagnus angustifolia|Elaeagnus commutata|Elatophilus hebraicus|Elegia deusta|Elephantopus hirtiflorus|Elephantopus tomentosus|Encyothalia cliftonii|Entada phaseoloides|Epimedium davidii|Eragrostis viscosa|Eremanthus seidelii|Erica arborea|Erica glauca|Erigeron crispus|Eriobotrya japonica|Eriophyllum confertiflorum|Eriosema chinense|Erysimum odoratum|Erythroxylum cambodianum|Eucalyptus camaldulensis|Eucalyptus flocktoniae|Eucalyptus melliodora|Eucommia ulmoides|Eudistoma bituminis|Eunicea mammosa|Eunicella cavolinii|Eupatorium gracile|Euphorbia amygdaloides|Euphorbia hirta|Euphorbia turczaninowii|Eupolyphaga sinensis|Euryops algoensis|Eutypella scoparia|Eysenhardtia subcoriacea Pennell|Fagopyrum esculentum|Fagopyrum homotropicum|Fagus fusca|Fagus grandifolia|Fallopia multiflora|Ficus microcarpa|Ficus simplicissima|Flemingia congesta|Flindersia brayleyana|Fomes cajanderi|Forsteronia refracta|Fragaria x ananassa|Fraxinus angustifolia subsp. oxycarpa|Fridericia chica|Fritillaria ningguoensis|Frullania tamarisci|Fugopyrum esculentum calli|Galenia africana|Gambierdiscus toxicus|Garcinia cornea|Garcinia dulcis|Garcinia intermedia|Garcinia mangostana|Garcinia morella|Garcinia speciosa|Gardenia jasminoides|Gardenia turgida|Gentiana germanica|Geranium pratense|Geranium sylvaticum|Gerbera piloselloides|Ginkgo biloba|Gleditsia japonica|Gleditsia sinensis|Globba malaccensis|Glycyrrhiza uralensis|Gmelina asiatica|Gnetum latifolium|Gnidia lamprantha|Gomortega keule|Goniothalamus amuyon|Goniothalamus malayanus|Grewia mollis|Griselinia littoralis|Gymnocarpium robertianum|Haemanthus amarylloides|Haliclona mucosa|Halimodendron halodendron|Haloxylon persicum|Haplophyllum dauricum|Haplophyllum ferganicum|Harungana madagascariensis|Hedysarum connatum|Hedysarum theinum|Helianthemum sessiliflorum|Helichrysum auriceps|Helichrysum cephaloideum|Helietta longifoliata|Heliotropium floridum|Helipterum roseum|Hemerocallis fulva|Hemionitis japonica|Heracleum sphondylium|Hesperis matronalis|Heterotheca grandiflora|Heterotheca inuloides|Hippocratea excelsa|Hippophae rhamnoides|Hoffmannia strigillosa|Holomelina lamae|Homo sapiens|Honorius nutans|Hovenia acerba|Hubertia tomentosa|Humulus lupulus|Hypericum balearicum|Hypericum humifusum|Hypericum laricifolium|Hypericum perforatum|Hypoxylon tinctor|Ichthyothere latifolia|Ilex amara|Ilex purpurea|Iotrochota purpurea|Ipomoea digitata|Ircinia spinosula|Iris ensata|Iryanthera coriacea|Isodon japonicus|Isodon lihsienensis|Ixora coccinea|Jackiella javanica|Jacobaea vulgaris|Jatropha macrorhiza|Juglans nigra|Jungermannia obovata|Juniperus rigida var. conferta|Kadsura heteroclita|Kaempferia marginata|Kandelia candel|Kaunia saltensis|Keiferia lycopersicella|Kielmeyera coriacea|Knightia excelsa|Kummerowia striata|Lachnophyllum gossypinum|Lactobacillus delbrueckii subsp. bulgaricus|Lantana montevidensis|Larix decidua Miller.|Larix sibirica|Laurencia distichophylla|Laurencia spectabilis|Laurus nobilis|Leathesia nana|Lecanora planaica|Leishmania major|Lemaireocereus griseus|Lens culinaris|Lentinus tigrinus|Leonurus glaucescens|Lepidium draba|Lepisorus ussuriensis|Leptogorgia sarmentosa|Leucas neufliseana|Leucopaxillus gentianeus|Ligularia cymbulifera|Ligustrum obtusifolium|Lilium brownii|Lilium lancifolium|Lilium pumilum|Lilium umbellatum|Lithospermum officinale|Litsea glutinosa|Litsea pungens|Lobophytum laevigatum|Lonchocarpus costaricensis|Lonicera hypoleuca|Lotus ucrainicus|Lyophyllum shimeji|Lysimachia mauritiana|Maba buxifolia|Machilus philippinensis|Macrothele gigas|Magnolia montana|Malus domestica|Malus pumila|Mangifera indica|Manilkara zapota|Manilkara zapota cv.Tikal|Marrubium anisodon|Marrubium supinum|Mascarenhasia arborescens|Matricaria recutita|Matricaria suffruticosa|Maytenus heterophylla|Maytenus putterlickoides|Meconopsis napaulensis|Melanelixia fuliginosa subsp. glabratula|Melilotus tauricus|Melochia tomentosa|Merremia umbellata|Mespilus germanica|Metalasia bolusii|Metapenaeus bennettae|Metridium senile|Micarea austroternaria|Micromeria pineolens|Microtropis fokienensis|Miliusa balansae|Miliusa sinensis|Millettia brandisiana|Millettia conraui|Millettia erythrocalyx|Mitracarpus scaber|Mitragyna inermis|Morus alba|Morus bombycis|Murraya exotica|Murraya paniculata|Muscari botryoides|Mycena sanguinolenta|Mycobacterium leprae|Myelobia smerintha|Myelochroa aurulenta|Myrica nagi|Myristica cagayanensis|Myrtopsis sellingii|Naja kaouthia|Narcissus concolor|Nasutitermes ephratae|Nauclea officinalis|Naucleopsis ternstroemiiflora|Negombata magnifica|Nemalion vermiculare|Nematolepis phebalioides|Neorautanenia ficifolia|Nicotiana sylvestris|Nidula candida|Nuphar lutea|Ochna beddomei|Olearia pimeleoides|Oleum rhododendri daurici|Oncoba echinata|Ononis vaginalis|Ophidiaster ophidianus|Ophiocoma scolopendrina|Ophiolepis superba|Ophiopogon chekiangensis|Oreopteris quelpaertensis|Ormosia panamensis|Ornithorhynchus anatinus|Orostachys fimbriata|Orostachys japonicus|Orthocaulis attenuatus|Orthosphenia mexicana|Osmerus mordax|Osteospermum rigidum|Othonna dentata|Oxyanthus speciosus|Palafoxia rosea|Panax japonicus|Pangium edule|Panopsis rubescens|Papaver hybridum|Papilio phorcas|Parabenzoin trilobum|Paramecium tetraurelia|Pastinaca sativa|Pedicularis condensata|Peltostigma guatemalense|Penicillium alutaceum|Penicillium citreonigrum|Penicillium kapuscinskii|Perezia carpholepis|Perityle vaseyi|Perriera orientalis|Persea americana|Petasites georgicus|Peucedanum praeruptorum|Phebalium dentatum|Phoebe clemensii|Phoebe formosana|Phoebe pittieri|Phoenix hanceana var. formosana|Phoenix loureiroi|Pholidota articulata|Phora velutina|Phyllanthus emblica|Phyllanthus oligospermus|Phyllogeiton zeyheri|Picea mariana|Pinus sibirica L.|Pinus sylvestris L.|Piptocarpha oblonga|Pistacia vera|Pisum sativum|Platonia insignis|Podocarpus nagi|Polycephalomyces nipponicus|Polygonum bistorta|Polygonum cuspidatum|Polygonum flaccidum|Polygonum hydropiper|Polyporus anthracophilus|Polyporus pini|Polysiphonia elongata|Polyzonium rosalbum|Porella swartziana|Poria selecta|Potamilla occelata|Potentilla anserina|Premna odorata|Prorocentrum micans|Prunus armeniaca|Prunus avium|Prunus domestica|Prunus dulcis|Prunus mume|Prunus persica|Prunus salicina|Pseudoalteromonas luteoviolacea|Pseudoalteromonas rubra|Pseudocyphellaria impressa|Pseudofumaria lutea|Pseudoparmelia sphaerospora|Pseudowintera colorata|Psora corallina|Psoroma crassum|Psoroma pallidum|Pteris cretica var. nervosa|Pteris radiata|Pteris semipinnata|Pterocarpus marsupium|Punica granatum|Pyrus communis|Quercus cerris L.|Quercus dentata|Quercus ilex L.|Quercus imbricaria|Quercus mongolica|Quercus palustris Muencch.|Quercus petraea Liebl.|Quercus pubescens Willd.|Quercus robur|Quercus robur L.|Quercus rubra L.|Quercus sessiliflora|Rapanea lancifolia|Rauvolfia vomitoria|Reaumuria hirtella|Relhania pumila|Rhamnus lotus|Rheum coreanum|Rheum emodi|Rheum officinale|Rheum palmatum|Rheum rhabarbarum|Rheum tanguticum|Rheum webbianum|Rhinoceros sondaicus|Rhizobium leguminosarum|Rhizochalina incrustata|Rhizoma fagopyri cymosi|Rhizophora stylosa|Rhodococcus fascians|Rhododendron micranthum|Rhododendron mucronatum|Rhus vulgaris|Rhytidoponera metallica|Ribes rubrum|Rosa laevigata|Rosa rugosa|Rubia oncotricha|Rubritalea squalenifaciens|Rubrivivax gelatinosus|Rubus adenotrichos|Rubus arcticus|Rubus glaucus|Rubus idaeus|Rumex japonicus|Rumex maritimus|Ruta pinnata|Sabal blackburniana|Sabina sargentii|Salacia chinensis|Salacia madagascariensis|Salacia prinoides|Salmonella enterica subsp. enterica serovar typhimurium|Salvia castanea|Salvia coulteri|Salvia dorrii|Salvia hispanica|Salvia munzii|Salvia parryi|Salvia syriaca|Saraca asoca|Sarcococca vagans|Sarcophyton elegans|Sargassum hemiphyllum|Sargentodoxa cuneata|Satureja cuneifolia|Saussurea carthamoides|Scabiosa pyrenaica|Schotia brachypetala|Scleronephthya pallida|Scopolia hladnikiana|Scorzonera pseudodivaricata|Scrophularia koelzii|Scrophularia umbrosa|Scurrula atropurpurea|Scurrura atropurpurea|Scutellaria amoena|Sedum obtuso-lineare|Senecio adenophyllus|Senecio callosus|Senecio densiflorus|Senecio flavus|Senecio latifolius|Senecio rivularis|Senecio suaveolens|Senecio vellereus|Senegalia catechu|Serpocaulon triseriale|Sesamoides canescens|Sesuvium portulacastrum|Sida cordifolia|Sida veronicaefolia|Sinularia depressa|Sinularia facile|Sinularia maxima|Siphula decumbens|Smilax china|Smilax glabra|Solanum acaule|Solanum andigena|Solanum elaeagnifolium|Solanum laxum|Solanum nigrum|Solanum sisymbriifolium|Solanum sublobatum|Solanum transcaucasicum|Solenopsis invicta|Solidago flexicaulis|Sonchus ortunoi|Sophora angustifolia|Spathelia excelsa|Spatholobus suberectus|Spiracantha cornifolia|Spirotropis longifolia|Spodoptera eridania|Spodoptera littoralis|Spongia bilamellata|Stellaria holostea|Sterculia foetida|Stereospermum cylindricum|Stevia aristata|Stevia mercedensis|Stevia polycephala|Stizolobium deeringianum|Stocksia brahuica|Streptomyces alboniger|Streptomyces avermectinius|Streptomyces cellulosae TES17|Streptomyces fradiae|Streptomyces goshikiensis|Streptomyces griseovariabilis|Streptomyces hachijoensis|Streptomyces lydicus|Streptomyces mobaraensis|Streptomyces nobilis|Streptomyces parvisporogenes|Streptomyces platensis|Streptomyces thermoviolaceus|Streptomyces xanthochromogenes|Streptomyces xantholiticus|Strongylocentrotus droebachiensis|Strychnos cathayensis|Strychnos erichsonii|Strychnos tabascana|Styrax ferrugineus|Styrax perkinsiae|Swertia delavayi|Swertia franchetiana|Swertia pseudochinensis|Swinglea glutinosa|Symploca hydnoides|Syncarpia hillii|Tamarindus indica|Tanacetum argenteum|Teclea gerrardii|Tecoma pentaphylla|Teucrium depressum|Thalictrum flavum|Thalictrum longistylum|Thamnosma rhodesica|Theobroma cacao|Theobroma grandiflorum|Thuja standishii|Thymbra spicata|Thymus piperella|Thymus quinquecostatus|Thymus vulgaris|Trachelospermum lucidum|Trametes cinnabarina|Trichia floriformis|Trichilia rubescens|Trichocolea tomentella|Trichophyton mentagrophytes|Trollius chinensis|Tropaeolum majus|Tropicoporus linteus|Turpinia ternata|Turraeanthus mannii|Tylophora tanakae|Typha capensis (Rohrb.) N. E. Br|Udotea petiolata|Ulmus americana|Umbilicaria esculenta|Uncaria elliptica|Uncaria gambir|Uncaria macrophylla|Uncaria rhynchophylla|Uncaria sinensis|Uncaria tomentosa|Uvaria griffithii|Vaccinium corymbosum|Vaccinium macrocarpon|Vaccinium oxycoccos|Vaccinium vitis-idaea|Vallota purpurea|Vasconcellea cundinamarcensis|Verbesina rupestris|Vernonia steetziana|Viburnum urceolatum|Vicia faba|Vigna angularis|Vigna mungo|Vigna umbellata|Vigna umbeuata|Viguiera incana|Viguiera linearis|Viguiera oblongifolia|Vincetoxicum hirundinaria|Vismia jefensis|Vitex negundo|Vitis rotundifolia|Vitis vinifera|Viviparus japonicus|Wedelia prostrata|Wibelia divaricata|Wikstroemia chamaedaphne|Wikstroemia retusa|Wilcoxia viperina|Wisteria sinensis|Woodwardia orientalis|Xanthoceras sorbifolia|Xanthoceras sorbifolia Bunge|Xanthoria aureola|Xenoacremonium recifei|Xylopia vielana|Xyris pterygoblephara|Zanthoxylum bungeanum|Zanthoxylum piperitum|Zanthoxylum schinifolium|Zanthoxylum tetraspermum|Zephyranthes sulphurea|Zingiber officinale|Ziziphus jujuba

>  <collections>  (172) 
ANPDB|AfroCancer|AfroDB|AnalytiCon Discovery NPs|Australian natural products|BIOFACQUIM|BitterDB|CMAUP (cCollective molecular activities of useful plants)|ChEBI NPs|ChemSpider NPs|ConMedNP|DrugBankNP|EMNPD|ETM (Ethiopian Traditional Medicine) DB|Exposome-explorer|FooDB|GNPS (Global Natural Products Social Molecular Networking)|KNApSaCK|Latin America dataset|NANPDB (Natural Products from Northern African Sources)|NPACT|NPASS|NPEdia|NuBBEDB|Phenol-explorer|Phyto4Health|SANCDB|StreptomeDB|Super Natural II|TCMDB-Taiwan (Traditional Chinese Medicine database)|TIPdb (database of Taiwan indigenous plants)|TPPT (Toxic Plants–PhytoToxins)|VietHerb

>  <dois>  (172) 
10.1002/9780470744307.gat218|10.1002/food.19880321030|10.1002/ptr.1513/|10.1007/s11130-012-0286-0|10.1016/S0378-8741(01)00414-7|10.1016/j.bmcl.2010.10.058|10.1016/j.bmcl.2010.12.025|10.1016/j.bmcl.2013.09.071|10.1016/j.bmcl.2013.12.098|10.1016/j.bmcl.2014.01.028|10.1016/j.bmcl.2015.02.048|10.1016/j.bmcl.2015.07.056|10.1016/j.bmcl.2016.08.094|10.1016/j.bmcl.2017.01.083|10.1016/j.ejmech.2012.01.057|10.1016/j.foodcont.2014.02.001|10.1016/j.foodres.2019.108899|10.1016/j.lwt.2014.11.023|10.1016/j.phytochem.2005.05.019|10.1016/j.sajb.2011.09.001|10.1021/acs.jnatprod.6b00720|10.1021/jf000026+|10.1021/jf050377u|10.1021/jf1017143|10.1021/jf9810261|10.1021/np000010d|10.1021/np000128u|10.1021/np000251l|10.1021/np010414l|10.1021/np0301442|10.1021/np0301543|10.1021/np040057p|10.1021/np049743e|10.1021/np060369n|10.1021/np0703904|10.1021/np1002274|10.1021/np400134z|10.1021/np400717m|10.1021/np990581+|10.1039/jr9570003586|10.1071/ch9640428|10.1079/bjn20051522|10.1186/s12906-018-2154-4|10.3390/12051163|10.4103/0974-8490.102269

>  <synonyms>  (172) 
Epicatechin|490-46-0|Epicatechol|l-Acacatechin|(-)-Epicatechol|epi-Catechin|epi-Catechol|(2R|3R)-2-(3|4-Dihydroxyphenyl)chroman-3|5|7-triol|(-)epicatechin|(2R|3R)-(-)-Epicatechin|(2R|3R)-2-(3|4-dihydroxyphenyl)-3|4-dihydro-2H-chromene-3|5|7-triol|CCRIS 7097|CHEBI:90|EINECS 207-710-1|UNII-34PHS7TU43|NSC 81161|Epicatechol| (-)-|34PHS7TU43|2|3-cis-epicatechin|DTXSID4045133|(-)-(2R:3R)-5|7|3'|4'-Tetrahydroxyflavan-3-ol|C15H14O6|NSC-81161|(2R|3R)-2-(3|4-dihydroxyphenyl)-3|4-dihydro-2H-1-benzopyran-3|5|7-triol|2H-1-Benzopyran-3|5|7-triol| 2-(3|4-dihydroxyphenyl)-3|4-dihydro-| (2R|3R)-|DTXCID2025133|2-(3|4-Dihydroxyphenyl)-2|3|4-trihydro-3|5|7-trihydroxychromene|(-)-cis-Epicatechin|Epicatechin-(-)|(-)-EPICATECHIN (USP-RS)|CAS-490-46-0|SMR000156230|Colatein|alpha-catechin|Kakaol|Teacatechin I|.alpha. Catechin|NCGC00015215-02|28E|L(-)-Epicatechin|Prestwick_203|(-)-cis-3|3'|4'|5|7-Pentahydroxyflavane|L-Epicatechin |(S)|Spectrum_000159|SpecPlus_000267|Spectrum2_000675|Spectrum3_000243|Spectrum4_000949|Spectrum5_000929|Lopac-C-1251|Oprea1_209947|SCHEMBL19412|BSPBio_001626|KBioGR_001538|KBioSS_000639|SPECTRUM210206|cid_72276|MLS001304012|DivK1c_006363|SPBio_000769|CHEMBL583912|L-EPICATECHIN WHO-DD|ACon1_001106|BCBcMAP01_000224|BDBM23417|GTPL12497|KBio1_001307|KBio2_000639|KBio2_003207|KBio2_005775|KBio3_001126|HMS1923M05|KUC104404N|HY-N0001|Tox21_110101|3|3'|4'|5|7-Pentahydroxyflavane|CCG-38571|LMPK12020003|s4723|(-)-Epicatechin| analytical standard|AKOS015895981|(-)-Epicatechin| >=90% (HPLC)|CS-3760|DB12039|DS-3358|KSC-10-144|SDCCGMLS-0066927.P001|SMP1_000115|NCGC00016415-01|NCGC00017331-08|AC-14586|BP-30203|CAS-154-23-4|CAS-7295-85-4|1ST000539|E1226|NS00093637|(-)-Epicatechin 1000 microg\/mL in Acetone|C09727|O10053|A871843|(-)-Epicatechin| >=98% (HPLC)| from green tea|Q-200001|CF3BA0C2-DE1B-44AB-A4D3-800F017221BA|Epicatechin| primary pharmaceutical reference standard|Q23050136|(-)-EPICATECHIN (CONSTITUENT OF MARITIME PINE)|(2R|3R)-2-(3|4-Dihydroxyphenyl)-3|5|7-chromanetriol|(-)-EPICATECHIN (CONSTITUENT OF GRAPE SEEDS OLIGOMERIC PROANTHOCYANIDINS)|(-)-EPICATECHIN(EG) (CONSTITUENT OF POWDERED DECAFFEINATED GREEN TEA EXTRACT)|2-(3|4-dihydroxyphenyl)-2|3|4-trihydro-3|5|7-trihydroxychromene;L-Epicatechin

>  <cas>  (172) 
490-46-0|154-23-4|7295-85-4

$$$$

     RDKit          2D

 33 37  0  0  0  0  0  0  0  0999 V2000
   -7.6850   -3.0496    0.0000 C   0  0  0  0  0  0  0  0  0  0  0  0
   -6.2275   -2.6949    0.0000 C   0  0  0  0  0  0  0  0  0  0  0  0
   -5.1916   -3.7798    0.0000 C   0  0  0  0  0  0  0  0  0  0  0  0
   -5.8059   -1.2554    0.0000 C   0  0  0  0  0  0  0  0  0  0  0  0
   -4.3664   -1.6770    0.0000 C   0  0  0  0  0  0  0  0  0  0  0  0
   -7.2454   -0.8338    0.0000 C   0  0  0  0  0  0  0  0  0  0  0  0
   -5.3843    0.1842    0.0000 C   0  0  0  0  0  0  0  0  0  0  0  0
   -3.9269    0.5388    0.0000 C   0  0  0  0  0  0  0  0  0  0  0  0
   -3.5053    1.9784    0.0000 C   0  0  0  0  0  0  0  0  0  0  0  0
   -4.5412    3.0632    0.0000 C   0  0  0  0  0  0  0  0  0  0  0  0
   -2.0478    2.3330    0.0000 C   0  0  0  0  0  0  0  0  0  0  0  0
   -1.4781    3.7206    0.0000 C   0  0  0  0  0  0  0  0  0  0  0  0
    0.0177    3.6076    0.0000 C   0  0  0  0  0  0  0  0  0  0  0  0
    0.3723    2.1501    0.0000 C   0  0  0  0  0  0  0  0  0  0  0  0
    1.5595    3.0669    0.0000 C   0  0  0  0  0  0  0  0  0  0  0  0
    1.6928    1.4384    0.0000 C   0  0  0  0  0  0  0  0  0  0  0  0
    2.9693    2.2261    0.0000 C   0  0  0  0  0  0  0  0  0  0  0  0
    4.2897    1.5145    0.0000 C   0  0  0  0  0  0  0  0  0  0  0  0
    4.3336    0.0151    0.0000 C   0  0  0  0  0  0  0  0  0  0  0  0
    5.6540   -0.6966    0.0000 C   0  0  0  0  0  0  0  0  0  0  0  0
    7.1382   -0.9137    0.0000 C   0  0  0  0  0  0  0  0  0  0  0  0
    6.1256    0.7274    0.0000 C   0  0  0  0  0  0  0  0  0  0  0  0
    5.6979   -2.1959    0.0000 C   0  0  0  0  0  0  0  0  0  0  0  0
    7.0184   -2.9076    0.0000 O   0  0  0  0  0  0  0  0  0  0  0  0
    4.4214   -2.9836    0.0000 C   0  0  0  0  0  0  0  0  0  0  0  0
    3.1010   -2.2719    0.0000 C   0  0  0  0  0  0  0  0  0  0  0  0
    3.0571   -0.7726    0.0000 C   0  0  0  0  0  0  0  0  0  0  0  0
    1.7806   -1.5603    0.0000 C   0  0  0  0  0  0  0  0  0  0  0  0
    1.7367   -0.0609    0.0000 C   0  0  0  0  0  0  0  0  0  0  0  0
    0.4601   -0.8486    0.0000 C   0  0  0  0  0  0  0  0  0  0  0  0
   -0.8603   -0.1370    0.0000 C   0  0  0  0  0  0  0  0  0  0  0  0
   -0.9042    1.3624    0.0000 C   0  0  0  0  0  0  0  0  0  0  0  0
   -2.2561    0.7124    0.0000 C   0  0  0  0  0  0  0  0  0  0  0  0
  1  2  2  0
  2  3  1  0
  2  4  1  0
  4  5  1  0
  4  6  1  0
  4  7  1  0
  7  8  1  0
  8  9  1  0
  9 10  1  1
  9 11  1  0
 11 12  1  1
 12 13  1  0
 13 14  1  0
 14 15  1  6
 14 16  1  0
 16 17  1  0
 17 18  1  0
 18 19  1  0
 19 20  1  0
 20 21  1  0
 20 22  1  0
 20 23  1  0
 23 24  2  0
 23 25  1  0
 25 26  1  0
 27 26  1  6
 27 28  1  0
 29 28  1  1
 29 30  1  0
 30 31  1  0
 31 32  1  0
 32 33  1  1
 32 11  1  0
 32 14  1  0
 29 16  1  0
 27 19  1  0
 29 27  1  0
M  END
>  <identifier>  (173) 
CNP0172448.1

>  <canonical_smiles>  (173) 
C=C(C)C(C)(C)CC[C@@H](C)[C@H]1CC[C@@]2(C)C3CCC4C(C)(C)C(=O)CC[C@@]45C[C@@]35CC[C@]12C

>  <standard_inchi>  (173) 
InChI=1S/C32H52O/c1-21(2)27(4,5)15-12-22(3)23-13-16-30(9)25-11-10-24-28(6,7)26(33)14-17-31(24)20-32(25,31)19-18-29(23,30)8/h22-25H,1,10-20H2,2-9H3/t22-,23-,24?,25?,29-,30+,31-,32+/m1/s1

>  <standard_inchi_key>  (173) 
SLFMBUBDOYEWDU-XIDJHNHKSA-N

>  <name>  (173) 
nan

>  <iupac_name>  (173) 
(1~{S},3~{R},12~{S},15~{R},16~{R})-7,7,12,16-tetramethyl-15-[(1~{R})-1,4,4,5-tetramethylhex-5-enyl]pentacyclo[9.7.0.0^{1,3}.0^{3,8}.0^{12,16}]octadecan-6-one

>  <annotation_level>  (173) 
5

>  <total_atom_count>  (173) 
85

>  <heavy_atom_count>  (173) 
33

>  <molecular_weight>  (173) 
452.77

>  <exact_molecular_weight>  (173) 
452.40182

>  <molecular_formula>  (173) 
C32H52O

>  <alogp>  (173) 
9.01

>  <topological_polar_surface_area>  (173) 
17.07

>  <rotatable_bond_count>  (173) 
5

>  <hydrogen_bond_acceptors>  (173) 
1

>  <hydrogen_bond_donors>  (173) 
0

>  <hydrogen_bond_acceptors_lipinski>  (173) 
1

>  <hydrogen_bond_donors_lipinski>  (173) 
0

>  <lipinski_rule_of_five_violations>  (173) 
1

>  <aromatic_rings_count>  (173) 
0

>  <qed_drug_likeliness>  (173) 
0.38

>  <formal_charge>  (173) 
0

>  <fractioncsp3>  (173) 
0.91

>  <number_of_minimal_rings>  (173) 
5

>  <van_der_walls_volume>  (173) 
477.98

>  <contains_sugar>  (173) 
False

>  <contains_ring_sugars>  (173) 
False

>  <contains_linear_sugars>  (173) 
False

>  <murcko_framework>  (173) 
C1CCC23CC43CCC5CCCC5C4CCC2C1

>  <np_likeness>  (173) 
2.96

>  <chemical_class>  (173) 
Steroids and steroid derivatives

>  <chemical_sub_class>  (173) 
Cycloartanols and derivatives

>  <chemical_super_class>  (173) 
Lipids and lipid-like molecules

>  <direct_parent_classification>  (173) 
Cycloartanols and derivatives

>  <np_classifier_pathway>  (173) 
Terpenoids

>  <np_classifier_superclass>  (173) 
Triterpenoids

>  <np_classifier_class>  (173) 
Cycloartane triterpenoids

>  <np_classifier_is_glycoside>  (173) 
False

>  <organisms>  (173) 
Scaphyglottis livida

>  <collections>  (173) 
BIOFACQUIM|Latin America dataset

>  <dois>  (173) 
10.1016/j.jep.2007.07.021

>  <synonyms>  (173) 
Cyclobalanone

>  <cas>  (173) 
nan

$$$$

     RDKit          2D

 33 37  0  0  0  0  0  0  0  0999 V2000
   -7.6850   -3.0496    0.0000 C   0  0  0  0  0  0  0  0  0  0  0  0
   -6.2275   -2.6949    0.0000 C   0  0  0  0  0  0  0  0  0  0  0  0
   -5.1916   -3.7798    0.0000 C   0  0  0  0  0  0  0  0  0  0  0  0
   -5.8059   -1.2554    0.0000 C   0  0  0  0  0  0  0  0  0  0  0  0
   -4.3664   -1.6770    0.0000 C   0  0  0  0  0  0  0  0  0  0  0  0
   -7.2454   -0.8338    0.0000 C   0  0  0  0  0  0  0  0  0  0  0  0
   -5.3843    0.1842    0.0000 C   0  0  0  0  0  0  0  0  0  0  0  0
   -3.9269    0.5388    0.0000 C   0  0  0  0  0  0  0  0  0  0  0  0
   -3.5053    1.9784    0.0000 C   0  0  0  0  0  0  0  0  0  0  0  0
   -4.5412    3.0632    0.0000 C   0  0  0  0  0  0  0  0  0  0  0  0
   -2.0478    2.3330    0.0000 C   0  0  0  0  0  0  0  0  0  0  0  0
   -1.4781    3.7206    0.0000 C   0  0  0  0  0  0  0  0  0  0  0  0
    0.0177    3.6076    0.0000 C   0  0  0  0  0  0  0  0  0  0  0  0
    0.3723    2.1501    0.0000 C   0  0  0  0  0  0  0  0  0  0  0  0
    1.5595    3.0669    0.0000 C   0  0  0  0  0  0  0  0  0  0  0  0
    1.6928    1.4384    0.0000 C   0  0  0  0  0  0  0  0  0  0  0  0
    2.9693    2.2261    0.0000 C   0  0  0  0  0  0  0  0  0  0  0  0
    4.2897    1.5145    0.0000 C   0  0  0  0  0  0  0  0  0  0  0  0
    4.3336    0.0151    0.0000 C   0  0  0  0  0  0  0  0  0  0  0  0
    5.6540   -0.6966    0.0000 C   0  0  0  0  0  0  0  0  0  0  0  0
    7.1382   -0.9137    0.0000 C   0  0  0  0  0  0  0  0  0  0  0  0
    6.1256    0.7274    0.0000 C   0  0  0  0  0  0  0  0  0  0  0  0
    5.6979   -2.1959    0.0000 C   0  0  0  0  0  0  0  0  0  0  0  0
    7.0184   -2.9076    0.0000 O   0  0  0  0  0  0  0  0  0  0  0  0
    4.4214   -2.9836    0.0000 C   0  0  0  0  0  0  0  0  0  0  0  0
    3.1010   -2.2719    0.0000 C   0  0  0  0  0  0  0  0  0  0  0  0
    3.0571   -0.7726    0.0000 C   0  0  0  0  0  0  0  0  0  0  0  0
    1.7806   -1.5603    0.0000 C   0  0  0  0  0  0  0  0  0  0  0  0
    1.7367   -0.0609    0.0000 C   0  0  0  0  0  0  0  0  0  0  0  0
    0.4601   -0.8486    0.0000 C   0  0  0  0  0  0  0  0  0  0  0  0
   -0.8603   -0.1370    0.0000 C   0  0  0  0  0  0  0  0  0  0  0  0
   -0.9042    1.3624    0.0000 C   0  0  0  0  0  0  0  0  0  0  0  0
   -2.2561    0.7124    0.0000 C   0  0  0  0  0  0  0  0  0  0  0  0
  1  2  2  0
  2  3  1  0
  2  4  1  0
  4  5  1  0
  4  6  1  0
  4  7  1  0
  7  8  1  0
  8  9  1  0
  9 10  1  1
  9 11  1  0
 11 12  1  1
 12 13  1  0
 13 14  1  0
 14 15  1  6
 14 16  1  0
 16 17  1  0
 17 18  1  0
 18 19  1  0
 19 20  1  0
 20 21  1  0
 20 22  1  0
 20 23  1  0
 23 24  1  1
 23 25  1  0
 25 26  1  0
 27 26  1  6
 27 28  1  0
 29 28  1  1
 29 30  1  0
 30 31  1  0
 31 32  1  0
 32 33  1  1
 32 11  1  0
 32 14  1  0
 29 16  1  0
 27 19  1  0
 29 27  1  0
M  END
>  <identifier>  (174) 
CNP0222436.1

>  <canonical_smiles>  (174) 
C=C(C)C(C)(C)CC[C@@H](C)[C@H]1CC[C@@]2(C)C3CCC4C(C)(C)[C@@H](O)CC[C@@]45C[C@@]35CC[C@]12C

>  <standard_inchi>  (174) 
InChI=1S/C32H54O/c1-21(2)27(4,5)15-12-22(3)23-13-16-30(9)25-11-10-24-28(6,7)26(33)14-17-31(24)20-32(25,31)19-18-29(23,30)8/h22-26,33H,1,10-20H2,2-9H3/t22-,23-,24?,25?,26+,29-,30+,31-,32+/m1/s1

>  <standard_inchi_key>  (174) 
WWZTVIKABWJXIY-IRXLFIPWSA-N

>  <name>  (174) 
nan

>  <iupac_name>  (174) 
(1~{S},3~{R},6~{S},12~{S},15~{R},16~{R})-7,7,12,16-tetramethyl-15-[(1~{R})-1,4,4,5-tetramethylhex-5-enyl]pentacyclo[9.7.0.0^{1,3}.0^{3,8}.0^{12,16}]octadecan-6-ol

>  <annotation_level>  (174) 
5

>  <total_atom_count>  (174) 
87

>  <heavy_atom_count>  (174) 
33

>  <molecular_weight>  (174) 
454.78

>  <exact_molecular_weight>  (174) 
454.41747

>  <molecular_formula>  (174) 
C32H54O

>  <alogp>  (174) 
8.81

>  <topological_polar_surface_area>  (174) 
20.23

>  <rotatable_bond_count>  (174) 
5

>  <hydrogen_bond_acceptors>  (174) 
1

>  <hydrogen_bond_donors>  (174) 
1

>  <hydrogen_bond_acceptors_lipinski>  (174) 
1

>  <hydrogen_bond_donors_lipinski>  (174) 
1

>  <lipinski_rule_of_five_violations>  (174) 
1

>  <aromatic_rings_count>  (174) 
0

>  <qed_drug_likeliness>  (174) 
0.41

>  <formal_charge>  (174) 
0

>  <fractioncsp3>  (174) 
0.94

>  <number_of_minimal_rings>  (174) 
5

>  <van_der_walls_volume>  (174) 
483.02

>  <contains_sugar>  (174) 
False

>  <contains_ring_sugars>  (174) 
False

>  <contains_linear_sugars>  (174) 
False

>  <murcko_framework>  (174) 
C1CCC23CC43CCC5CCCC5C4CCC2C1

>  <np_likeness>  (174) 
2.99

>  <chemical_class>  (174) 
Steroids and steroid derivatives

>  <chemical_sub_class>  (174) 
Cycloartanols and derivatives

>  <chemical_super_class>  (174) 
Lipids and lipid-like molecules

>  <direct_parent_classification>  (174) 
Cycloartanols and derivatives

>  <np_classifier_pathway>  (174) 
Terpenoids

>  <np_classifier_superclass>  (174) 
Triterpenoids

>  <np_classifier_class>  (174) 
Cycloartane triterpenoids

>  <np_classifier_is_glycoside>  (174) 
False

>  <organisms>  (174) 
Scaphyglottis livida

>  <collections>  (174) 
BIOFACQUIM|Latin America dataset

>  <dois>  (174) 
10.1016/j.jep.2007.07.021

>  <synonyms>  (174) 
LDD

>  <cas>  (174) 
nan

$$$$

     RDKit          2D

 22 23  0  0  0  0  0  0  0  0999 V2000
    5.3718   -3.0914    0.0000 C   0  0  0  0  0  0  0  0  0  0  0  0
    5.8557   -1.6716    0.0000 O   0  0  0  0  0  0  0  0  0  0  0  0
    4.8680   -0.5427    0.0000 C   0  0  0  0  0  0  0  0  0  0  0  0
    3.3965   -0.8335    0.0000 C   0  0  0  0  0  0  0  0  0  0  0  0
    2.4089    0.2955    0.0000 C   0  0  0  0  0  0  0  0  0  0  0  0
    0.9373    0.0047    0.0000 C   0  0  0  0  0  0  0  0  0  0  0  0
   -0.0503    1.1337    0.0000 C   0  0  0  0  0  0  0  0  0  0  0  0
   -1.5218    0.8428    0.0000 C   0  0  0  0  0  0  0  0  0  0  0  0
   -2.5095    1.9718    0.0000 C   0  0  0  0  0  0  0  0  0  0  0  0
   -3.9810    1.6810    0.0000 C   0  0  0  0  0  0  0  0  0  0  0  0
   -4.9686    2.8100    0.0000 O   0  0  0  0  0  0  0  0  0  0  0  0
   -4.4649    0.2612    0.0000 C   0  0  0  0  0  0  0  0  0  0  0  0
   -5.9364   -0.0296    0.0000 O   0  0  0  0  0  0  0  0  0  0  0  0
   -6.4204   -1.4494    0.0000 C   0  0  0  0  0  0  0  0  0  0  0  0
   -3.4773   -0.8678    0.0000 C   0  0  0  0  0  0  0  0  0  0  0  0
   -3.9612   -2.2876    0.0000 O   0  0  0  0  0  0  0  0  0  0  0  0
   -2.9736   -3.4166    0.0000 C   0  0  0  0  0  0  0  0  0  0  0  0
   -2.0057   -0.5770    0.0000 C   0  0  0  0  0  0  0  0  0  0  0  0
    2.8928    1.7153    0.0000 C   0  0  0  0  0  0  0  0  0  0  0  0
    4.3643    2.0061    0.0000 C   0  0  0  0  0  0  0  0  0  0  0  0
    5.3519    0.8771    0.0000 C   0  0  0  0  0  0  0  0  0  0  0  0
    6.8235    1.1680    0.0000 O   0  0  0  0  0  0  0  0  0  0  0  0
  1  2  1  0
  2  3  1  0
  3  4  2  0
  4  5  1  0
  5  6  1  0
  6  7  1  0
  7  8  1  0
  8  9  2  0
  9 10  1  0
 10 11  1  0
 10 12  2  0
 12 13  1  0
 13 14  1  0
 12 15  1  0
 15 16  1  0
 16 17  1  0
 15 18  2  0
  5 19  2  0
 19 20  1  0
 20 21  2  0
 21 22  1  0
 21  3  1  0
 18  8  1  0
M  END
>  <identifier>  (175) 
CNP0107256.0

>  <canonical_smiles>  (175) 
COC1=CC(CCC2=CC(O)=C(OC)C(OC)=C2)=CC=C1O

>  <standard_inchi>  (175) 
InChI=1S/C17H20O5/c1-20-15-9-11(6-7-13(15)18)4-5-12-8-14(19)17(22-3)16(10-12)21-2/h6-10,18-19H,4-5H2,1-3H3

>  <standard_inchi_key>  (175) 
UTXKXSRRVOYQSF-UHFFFAOYSA-N

>  <name>  (175) 
5,4'-Dihydroxy-3,4,3'-trimethoxybibenzyl

>  <iupac_name>  (175) 
5-[2-(4-hydroxy-3-methoxy-phenyl)ethyl]-2,3-dimethoxy-phenol

>  <annotation_level>  (175) 
5

>  <total_atom_count>  (175) 
42

>  <heavy_atom_count>  (175) 
22

>  <molecular_weight>  (175) 
304.34

>  <exact_molecular_weight>  (175) 
304.13107

>  <molecular_formula>  (175) 
C17H20O5

>  <alogp>  (175) 
2.91

>  <topological_polar_surface_area>  (175) 
68.15

>  <rotatable_bond_count>  (175) 
6

>  <hydrogen_bond_acceptors>  (175) 
5

>  <hydrogen_bond_donors>  (175) 
2

>  <hydrogen_bond_acceptors_lipinski>  (175) 
5

>  <hydrogen_bond_donors_lipinski>  (175) 
2

>  <lipinski_rule_of_five_violations>  (175) 
0

>  <aromatic_rings_count>  (175) 
2

>  <qed_drug_likeliness>  (175) 
0.86

>  <formal_charge>  (175) 
0

>  <fractioncsp3>  (175) 
0.29

>  <number_of_minimal_rings>  (175) 
2

>  <van_der_walls_volume>  (175) 
281.34

>  <contains_sugar>  (175) 
False

>  <contains_ring_sugars>  (175) 
False

>  <contains_linear_sugars>  (175) 
False

>  <murcko_framework>  (175) 
c1ccc(cc1)CCc2ccccc2

>  <np_likeness>  (175) 
0.88

>  <chemical_class>  (175) 
Stilbenes

>  <chemical_sub_class>  (175) 
Stilbenes

>  <chemical_super_class>  (175) 
Phenylpropanoids and polyketides

>  <direct_parent_classification>  (175) 
Stilbenes

>  <np_classifier_pathway>  (175) 
Shikimates and Phenylpropanoids

>  <np_classifier_superclass>  (175) 
Stilbenoids

>  <np_classifier_class>  (175) 
Monomeric stilbenes

>  <np_classifier_is_glycoside>  (175) 
False

>  <organisms>  (175) 
Combretum apiculatum|Dendrobium fimbriatum|Scaphyglottis livida

>  <collections>  (175) 
BIOFACQUIM|CMAUP (cCollective molecular activities of useful plants)|KNApSaCK|Latin America dataset|NPASS|NPEdia|Super Natural II|UNPD (Universal Natural Products Database)

>  <dois>  (175) 
10.1016/j.bmcl.2014.09.052|10.1016/j.jep.2007.07.021

>  <synonyms>  (175) 
CHEMBL3337992|SCHEMBL18546197|HY-N11999|3|4'-dihydroxy-3'|4|5-trimethoxybibenzyl|CS-0890426|838826-34-9|DTB

>  <cas>  (175) 
838826-34-9

$$$$

     RDKit          2D

 23 25  0  0  0  0  0  0  0  0999 V2000
   -5.0098   -1.9675    0.0000 C   0  0  0  0  0  0  0  0  0  0  0  0
   -3.6597   -2.6210    0.0000 O   0  0  0  0  0  0  0  0  0  0  0  0
   -2.4186   -1.7785    0.0000 C   0  0  0  0  0  0  0  0  0  0  0  0
   -1.0685   -2.4320    0.0000 C   0  0  0  0  0  0  0  0  0  0  0  0
    0.1726   -1.5895    0.0000 C   0  0  0  0  0  0  0  0  0  0  0  0
    1.5227   -2.2430    0.0000 C   0  0  0  0  0  0  0  0  0  0  0  0
    2.7638   -1.4005    0.0000 C   0  0  0  0  0  0  0  0  0  0  0  0
    4.1139   -2.0540    0.0000 O   0  0  0  0  0  0  0  0  0  0  0  0
    4.2230   -3.5500    0.0000 C   0  0  0  0  0  0  0  0  0  0  0  0
    2.6546    0.0955    0.0000 C   0  0  0  0  0  0  0  0  0  0  0  0
    3.8957    0.9381    0.0000 C   0  0  0  0  0  0  0  0  0  0  0  0
    3.7866    2.4341    0.0000 C   0  0  0  0  0  0  0  0  0  0  0  0
    2.4364    3.0876    0.0000 C   0  0  0  0  0  0  0  0  0  0  0  0
    1.1954    2.2451    0.0000 C   0  0  0  0  0  0  0  0  0  0  0  0
   -0.1548    2.8986    0.0000 O   0  0  0  0  0  0  0  0  0  0  0  0
    1.3045    0.7491    0.0000 C   0  0  0  0  0  0  0  0  0  0  0  0
    0.0634   -0.0935    0.0000 C   0  0  0  0  0  0  0  0  0  0  0  0
   -1.2867    0.5601    0.0000 C   0  0  0  0  0  0  0  0  0  0  0  0
   -1.3958    2.0561    0.0000 O   0  0  0  0  0  0  0  0  0  0  0  0
   -2.7460    2.7096    0.0000 C   0  0  0  0  0  0  0  0  0  0  0  0
   -2.5277   -0.2825    0.0000 C   0  0  0  0  0  0  0  0  0  0  0  0
   -3.8779    0.3711    0.0000 O   0  0  0  0  0  0  0  0  0  0  0  0
   -3.9870    1.8671    0.0000 C   0  0  0  0  0  0  0  0  0  0  0  0
  1  2  1  0
  2  3  1  0
  3  4  2  0
  4  5  1  0
  5  6  2  0
  6  7  1  0
  7  8  1  0
  8  9  1  0
  7 10  2  0
 10 11  1  0
 11 12  2  0
 12 13  1  0
 13 14  2  0
 14 15  1  0
 14 16  1  0
 16 17  2  0
 17 18  1  0
 18 19  1  0
 19 20  1  0
 18 21  2  0
 21 22  1  0
 22 23  1  0
 21  3  1  0
 17  5  1  0
 16 10  1  0
M  END
>  <identifier>  (176) 
CNP0252602.0

>  <canonical_smiles>  (176) 
COC1=CC2=CC(OC)=C3C=CC=C(O)C3=C2C(OC)=C1OC

>  <standard_inchi>  (176) 
InChI=1S/C18H18O5/c1-20-13-8-10-9-14(21-2)17(22-3)18(23-4)15(10)16-11(13)6-5-7-12(16)19/h5-9,19H,1-4H3

>  <standard_inchi_key>  (176) 
IQUUXFOZWKSLBQ-UHFFFAOYSA-N

>  <name>  (176) 
nan

>  <iupac_name>  (176) 
5,6,7,10-tetramethoxyphenanthren-4-ol

>  <annotation_level>  (176) 
5

>  <total_atom_count>  (176) 
41

>  <heavy_atom_count>  (176) 
23

>  <molecular_weight>  (176) 
314.34

>  <exact_molecular_weight>  (176) 
314.11542

>  <molecular_formula>  (176) 
C18H18O5

>  <alogp>  (176) 
3.73

>  <topological_polar_surface_area>  (176) 
57.15

>  <rotatable_bond_count>  (176) 
4

>  <hydrogen_bond_acceptors>  (176) 
5

>  <hydrogen_bond_donors>  (176) 
1

>  <hydrogen_bond_acceptors_lipinski>  (176) 
5

>  <hydrogen_bond_donors_lipinski>  (176) 
1

>  <lipinski_rule_of_five_violations>  (176) 
0

>  <aromatic_rings_count>  (176) 
3

>  <qed_drug_likeliness>  (176) 
0.74

>  <formal_charge>  (176) 
0

>  <fractioncsp3>  (176) 
0.22

>  <number_of_minimal_rings>  (176) 
3

>  <van_der_walls_volume>  (176) 
276.26

>  <contains_sugar>  (176) 
False

>  <contains_ring_sugars>  (176) 
False

>  <contains_linear_sugars>  (176) 
False

>  <murcko_framework>  (176) 
c1ccc2c(c1)ccc3ccccc32

>  <np_likeness>  (176) 
0.96

>  <chemical_class>  (176) 
Phenanthrenes and derivatives

>  <chemical_sub_class>  (176) 
Phenanthrols

>  <chemical_super_class>  (176) 
Benzenoids

>  <direct_parent_classification>  (176) 
Phenanthrols

>  <np_classifier_pathway>  (176) 
Shikimates and Phenylpropanoids

>  <np_classifier_superclass>  (176) 
Phenanthrenoids

>  <np_classifier_class>  (176) 
Phenanthrenes

>  <np_classifier_is_glycoside>  (176) 
False

>  <organisms>  (176) 
Maxillaria densa

>  <collections>  (176) 
BIOFACQUIM|Latin America dataset

>  <dois>  (176) 
10.1016/j.jep.2007.07.021

>  <synonyms>  (176) 
Fimbriol A

>  <cas>  (176) 
nan

$$$$

     RDKit          2D

 20 22  0  0  0  0  0  0  0  0999 V2000
   -3.4025    2.6884    0.0000 C   0  0  0  0  0  0  0  0  0  0  0  0
   -3.7738    1.2351    0.0000 O   0  0  0  0  0  0  0  0  0  0  0  0
   -2.7008    0.1869    0.0000 C   0  0  0  0  0  0  0  0  0  0  0  0
   -3.0721   -1.2664    0.0000 C   0  0  0  0  0  0  0  0  0  0  0  0
   -4.5164   -1.6715    0.0000 O   0  0  0  0  0  0  0  0  0  0  0  0
   -1.9992   -2.3147    0.0000 C   0  0  0  0  0  0  0  0  0  0  0  0
   -0.5549   -1.9096    0.0000 C   0  0  0  0  0  0  0  0  0  0  0  0
    0.5180   -2.9578    0.0000 C   0  0  0  0  0  0  0  0  0  0  0  0
    1.9623   -2.5527    0.0000 C   0  0  0  0  0  0  0  0  0  0  0  0
    2.3336   -1.0994    0.0000 C   0  0  0  0  0  0  0  0  0  0  0  0
    3.7779   -0.6943    0.0000 C   0  0  0  0  0  0  0  0  0  0  0  0
    4.1492    0.7590    0.0000 C   0  0  0  0  0  0  0  0  0  0  0  0
    5.5935    1.1641    0.0000 O   0  0  0  0  0  0  0  0  0  0  0  0
    3.0762    1.8073    0.0000 C   0  0  0  0  0  0  0  0  0  0  0  0
    1.6320    1.4022    0.0000 C   0  0  0  0  0  0  0  0  0  0  0  0
    1.2607   -0.0512    0.0000 C   0  0  0  0  0  0  0  0  0  0  0  0
   -0.1836   -0.4562    0.0000 C   0  0  0  0  0  0  0  0  0  0  0  0
   -1.2566    0.5920    0.0000 C   0  0  0  0  0  0  0  0  0  0  0  0
   -0.8852    2.0453    0.0000 O   0  0  0  0  0  0  0  0  0  0  0  0
   -1.9582    3.0935    0.0000 C   0  0  0  0  0  0  0  0  0  0  0  0
  1  2  1  0
  2  3  1  0
  3  4  2  0
  4  5  1  0
  4  6  1  0
  6  7  2  0
  7  8  1  0
  8  9  1  0
  9 10  1  0
 10 11  2  0
 11 12  1  0
 12 13  1  0
 12 14  2  0
 14 15  1  0
 15 16  2  0
 16 17  1  0
 17 18  2  0
 18 19  1  0
 19 20  1  0
 18  3  1  0
 17  7  1  0
 16 10  1  0
M  END
>  <identifier>  (177) 
CNP0151473.0

>  <canonical_smiles>  (177) 
COC1=C(O)C=C2CCC3=CC(O)=CC=C3C2=C1OC

>  <standard_inchi>  (177) 
InChI=1S/C16H16O4/c1-19-15-13(18)8-10-4-3-9-7-11(17)5-6-12(9)14(10)16(15)20-2/h5-8,17-18H,3-4H2,1-2H3

>  <standard_inchi_key>  (177) 
NWPBSPADEDDKAO-UHFFFAOYSA-N

>  <name>  (177) 
erianthridin

>  <iupac_name>  (177) 
3,4-dimethoxy-9,10-dihydrophenanthrene-2,7-diol

>  <annotation_level>  (177) 
5

>  <total_atom_count>  (177) 
36

>  <heavy_atom_count>  (177) 
20

>  <molecular_weight>  (177) 
272.3

>  <exact_molecular_weight>  (177) 
272.10486

>  <molecular_formula>  (177) 
C16H16O4

>  <alogp>  (177) 
2.88

>  <topological_polar_surface_area>  (177) 
58.92

>  <rotatable_bond_count>  (177) 
2

>  <hydrogen_bond_acceptors>  (177) 
4

>  <hydrogen_bond_donors>  (177) 
2

>  <hydrogen_bond_acceptors_lipinski>  (177) 
4

>  <hydrogen_bond_donors_lipinski>  (177) 
2

>  <lipinski_rule_of_five_violations>  (177) 
0

>  <aromatic_rings_count>  (177) 
2

>  <qed_drug_likeliness>  (177) 
0.88

>  <formal_charge>  (177) 
0

>  <fractioncsp3>  (177) 
0.25

>  <number_of_minimal_rings>  (177) 
3

>  <van_der_walls_volume>  (177) 
243.80

>  <contains_sugar>  (177) 
False

>  <contains_ring_sugars>  (177) 
False

>  <contains_linear_sugars>  (177) 
False

>  <murcko_framework>  (177) 
c1ccc2c(c1)-c3ccccc3CC2

>  <np_likeness>  (177) 
1.52

>  <chemical_class>  (177) 
Phenanthrenes and derivatives

>  <chemical_sub_class>  (177) 
Phenanthrenes and derivatives

>  <chemical_super_class>  (177) 
Benzenoids

>  <direct_parent_classification>  (177) 
Phenanthrenes and derivatives

>  <np_classifier_pathway>  (177) 
Shikimates and Phenylpropanoids

>  <np_classifier_superclass>  (177) 
Phenanthrenoids

>  <np_classifier_class>  (177) 
Phenanthrenes

>  <np_classifier_is_glycoside>  (177) 
False

>  <organisms>  (177) 
Ariocarpus scapharostrus|Bacterial strain|Bletilla formosana|Bletilla striata|Bulbophyllum vaginatum|Callophycus serratus|Chaetomium arcuatum|Chlorophora regia|Corydalis conspersa|Delphinium winklerianum|Dendrobium nobile|Dendrobium plicatile|Dimorphocarpa wislizeni|Dioscorea bulbifera|Ephemerantha lonchophylla|Gloiosiphonia verticillaris|Gynochthodes parvifolia|Heteropsis integerrima|Leucoptera malifoliella|Ligustrum ovalifolium|Maxillaria densa|Mespilus germanica|Mikania luetzelburgii|Pholidota chinensis Lindl.|Pinguicula moranensis|Pittosporum brevicalyx|Sargassum siliquastrum|Shorea seminis|Sideritis grandiflora|Solanum euacanthum|Syzygium aromaticum|Tolpis webbii|Ungernia victoris|Watersipora cucullata|cymbidium great flower marie laurencin

>  <collections>  (177) 
BIOFACQUIM|CMAUP (cCollective molecular activities of useful plants)|KNApSaCK|Latin America dataset|NPASS|Phyto4Health|Super Natural II|TCMID (Traditional Chinese Medicine Integrated Database)|UNPD (Universal Natural Products Database)

>  <dois>  (177) 
10.1016/j.jep.2007.07.021

>  <synonyms>  (177) 
3|4-dimethoxy-9|10-dihydrophenanthrene-2|7-diol|101508-48-9|CHEMBL253982|DTXSID601318052|9|10-dihydro-2|7-dihydroxy-3|4-dimethoxyphenanthrene|Erianthridin

>  <cas>  (177) 
101508-48-9

$$$$

     RDKit          2D

 34 38  0  0  0  0  0  0  0  0999 V2000
   -4.7835   -3.8004    0.0000 C   0  0  0  0  0  0  0  0  0  0  0  0
   -3.4418   -3.1298    0.0000 O   0  0  0  0  0  0  0  0  0  0  0  0
   -3.3517   -1.6325    0.0000 C   0  0  0  0  0  0  0  0  0  0  0  0
   -4.6033   -0.8059    0.0000 C   0  0  0  0  0  0  0  0  0  0  0  0
   -4.5133    0.6914    0.0000 C   0  0  0  0  0  0  0  0  0  0  0  0
   -5.7649    1.5181    0.0000 O   0  0  0  0  0  0  0  0  0  0  0  0
   -3.1715    1.3621    0.0000 C   0  0  0  0  0  0  0  0  0  0  0  0
   -3.0814    2.8594    0.0000 C   0  0  0  0  0  0  0  0  0  0  0  0
   -4.3331    3.6860    0.0000 O   0  0  0  0  0  0  0  0  0  0  0  0
   -1.7397    3.5300    0.0000 C   0  0  0  0  0  0  0  0  0  0  0  0
   -0.4880    2.7033    0.0000 C   0  0  0  0  0  0  0  0  0  0  0  0
    0.8537    3.3739    0.0000 O   0  0  0  0  0  0  0  0  0  0  0  0
    0.9438    4.8712    0.0000 C   0  0  0  0  0  0  0  0  0  0  0  0
   -0.5781    1.2060    0.0000 C   0  0  0  0  0  0  0  0  0  0  0  0
   -1.9199    0.5354    0.0000 C   0  0  0  0  0  0  0  0  0  0  0  0
   -2.0100   -0.9619    0.0000 C   0  0  0  0  0  0  0  0  0  0  0  0
   -0.7583   -1.7886    0.0000 C   0  0  0  0  0  0  0  0  0  0  0  0
    0.5834   -1.1179    0.0000 C   0  0  0  0  0  0  0  0  0  0  0  0
    0.6735    0.3794    0.0000 C   0  0  0  0  0  0  0  0  0  0  0  0
    0.4933   -2.6152    0.0000 C   0  0  0  0  0  0  0  0  0  0  0  0
   -0.8484   -3.2859    0.0000 O   0  0  0  0  0  0  0  0  0  0  0  0
   -0.9385   -4.7832    0.0000 C   0  0  0  0  0  0  0  0  0  0  0  0
    1.7450   -3.4419    0.0000 C   0  0  0  0  0  0  0  0  0  0  0  0
    3.0867   -2.7713    0.0000 C   0  0  0  0  0  0  0  0  0  0  0  0
    4.3384   -3.5979    0.0000 O   0  0  0  0  0  0  0  0  0  0  0  0
    3.1768   -1.2740    0.0000 C   0  0  0  0  0  0  0  0  0  0  0  0
    4.5186   -0.6034    0.0000 C   0  0  0  0  0  0  0  0  0  0  0  0
    5.7702   -1.4300    0.0000 O   0  0  0  0  0  0  0  0  0  0  0  0
    4.6086    0.8939    0.0000 C   0  0  0  0  0  0  0  0  0  0  0  0
    3.3570    1.7206    0.0000 C   0  0  0  0  0  0  0  0  0  0  0  0
    3.4471    3.2179    0.0000 O   0  0  0  0  0  0  0  0  0  0  0  0
    4.7888    3.8885    0.0000 C   0  0  0  0  0  0  0  0  0  0  0  0
    2.0153    1.0500    0.0000 C   0  0  0  0  0  0  0  0  0  0  0  0
    1.9252   -0.4473    0.0000 C   0  0  0  0  0  0  0  0  0  0  0  0
  1  2  1  0
  2  3  1  0
  3  4  2  0
  4  5  1  0
  5  6  2  0
  5  7  1  0
  7  8  2  0
  8  9  1  0
  8 10  1  0
 10 11  2  0
 11 12  1  0
 12 13  1  0
 11 14  1  0
 14 15  2  0
 15 16  1  0
 16 17  2  0
 17 18  1  0
 18 19  1  6
 18 20  1  0
 20 21  1  0
 21 22  1  0
 20 23  2  0
 23 24  1  0
 24 25  2  0
 24 26  1  0
 26 27  2  0
 27 28  1  0
 27 29  1  0
 29 30  2  0
 30 31  1  0
 31 32  1  0
 30 33  1  0
 33 34  2  0
 16  3  1  0
 34 18  1  0
 15  7  1  0
 34 26  1  0
 19 14  1  0
M  END
>  <identifier>  (178) 
CNP0402180.1

>  <canonical_smiles>  (178) 
COC1=CC(=O)C2=C(O)C=C(OC)C3=C2C1=C[C@]1(C3)C(OC)=CC(=O)C2=C(O)C=C(OC)C=C21

>  <standard_inchi>  (178) 
InChI=1S/C26H22O8/c1-31-12-5-15-24(16(27)6-12)19(30)9-22(34-4)26(15)10-13-20(32-2)7-17(28)25-18(29)8-21(33-3)14(11-26)23(13)25/h5-10,27,29H,11H2,1-4H3/t26-/m1/s1

>  <standard_inchi_key>  (178) 
HJJVLOSOGVDXLM-AREMUKBSSA-N

>  <name>  (178) 
Minimoidione B

>  <iupac_name>  (178) 
(5~{S})-8',9-dihydroxy-3,3',6',7-tetramethoxy-spiro[6~{H}-phenalene-5,4'-naphthalene]-1,1'-dione

>  <annotation_level>  (178) 
5

>  <total_atom_count>  (178) 
56

>  <heavy_atom_count>  (178) 
34

>  <molecular_weight>  (178) 
462.45

>  <exact_molecular_weight>  (178) 
462.13147

>  <molecular_formula>  (178) 
C26H22O8

>  <alogp>  (178) 
3.45

>  <topological_polar_surface_area>  (178) 
111.52

>  <rotatable_bond_count>  (178) 
4

>  <hydrogen_bond_acceptors>  (178) 
8

>  <hydrogen_bond_donors>  (178) 
2

>  <hydrogen_bond_acceptors_lipinski>  (178) 
8

>  <hydrogen_bond_donors_lipinski>  (178) 
2

>  <lipinski_rule_of_five_violations>  (178) 
0

>  <aromatic_rings_count>  (178) 
2

>  <qed_drug_likeliness>  (178) 
0.71

>  <formal_charge>  (178) 
0

>  <fractioncsp3>  (178) 
0.23

>  <number_of_minimal_rings>  (178) 
5

>  <van_der_walls_volume>  (178) 
392.70

>  <contains_sugar>  (178) 
False

>  <contains_ring_sugars>  (178) 
False

>  <contains_linear_sugars>  (178) 
False

>  <murcko_framework>  (178) 
c1ccc2c(c1)CC=CC32C=C4C=CCc5cccc(c45)C3

>  <np_likeness>  (178) 
1.66

>  <chemical_class>  (178) 
Naphthalenes

>  <chemical_sub_class>  (178) 
Naphthols and derivatives

>  <chemical_super_class>  (178) 
Benzenoids

>  <direct_parent_classification>  (178) 
Naphthols and derivatives

>  <np_classifier_pathway>  (178) 
Polyketides

>  <np_classifier_superclass>  (178) 
Naphthalenes

>  <np_classifier_class>  (178) 
Naphthoquinones

>  <np_classifier_is_glycoside>  (178) 
False

>  <organisms>  (178) 
Preussia minimoides

>  <collections>  (178) 
BIOFACQUIM

>  <dois>  (178) 
10.1021/acs.jnatprod.6b00574

>  <synonyms>  (178) 
CHEBI:206820|8'|9-dihydroxy-3|3'|6'|7-tetramethoxyspiro6H-phenalene-5|4'-naphthalene-1|1'-dione|Minimoidiones B

>  <cas>  (178) 
nan

$$$$

     RDKit          2D

 33 37  0  0  0  0  0  0  0  0999 V2000
   -7.6173   -2.8477    0.0000 C   0  0  0  0  0  0  0  0  0  0  0  0
   -6.1504   -2.5342    0.0000 C   0  0  0  0  0  0  0  0  0  0  0  0
   -5.1455   -3.6478    0.0000 C   0  0  0  0  0  0  0  0  0  0  0  0
   -5.6885   -1.1071    0.0000 C   0  0  0  0  0  0  0  0  0  0  0  0
   -4.2614   -1.5691    0.0000 C   0  0  0  0  0  0  0  0  0  0  0  0
   -7.1155   -0.6451    0.0000 C   0  0  0  0  0  0  0  0  0  0  0  0
   -5.2265    0.3200    0.0000 C   0  0  0  0  0  0  0  0  0  0  0  0
   -3.7596    0.6334    0.0000 C   0  0  0  0  0  0  0  0  0  0  0  0
   -3.2976    2.0605    0.0000 C   0  0  0  0  0  0  0  0  0  0  0  0
   -4.3025    3.1741    0.0000 C   0  0  0  0  0  0  0  0  0  0  0  0
   -1.8307    2.3740    0.0000 C   0  0  0  0  0  0  0  0  0  0  0  0
   -1.2221    3.7450    0.0000 C   0  0  0  0  0  0  0  0  0  0  0  0
    0.2698    3.5898    0.0000 C   0  0  0  0  0  0  0  0  0  0  0  0
    0.5833    2.1229    0.0000 C   0  0  0  0  0  0  0  0  0  0  0  0
    1.7959    3.0059    0.0000 C   0  0  0  0  0  0  0  0  0  0  0  0
    1.8831    1.3743    0.0000 C   0  0  0  0  0  0  0  0  0  0  0  0
    3.1814    2.1257    0.0000 C   0  0  0  0  0  0  0  0  0  0  0  0
    4.4812    1.3771    0.0000 C   0  0  0  0  0  0  0  0  0  0  0  0
    4.4828   -0.1229    0.0000 C   0  0  0  0  0  0  0  0  0  0  0  0
    5.5987   -1.1254    0.0000 C   0  0  0  0  0  0  0  0  0  0  0  0
    6.4790    0.0891    0.0000 C   0  0  0  0  0  0  0  0  0  0  0  0
    6.8985   -1.8739    0.0000 C   0  0  0  0  0  0  0  0  0  0  0  0
    4.9900   -2.4963    0.0000 C   0  0  0  0  0  0  0  0  0  0  0  0
    3.6918   -3.2477    0.0000 C   0  0  0  0  0  0  0  0  0  0  0  0
    2.5760   -2.2453    0.0000 C   0  0  0  0  0  0  0  0  0  0  0  0
    3.1846   -0.8743    0.0000 C   0  0  0  0  0  0  0  0  0  0  0  0
    4.6766   -1.0295    0.0000 O   0  0  0  0  0  0  0  0  0  0  0  0
    1.8848   -0.1257    0.0000 C   0  0  0  0  0  0  0  0  0  0  0  0
    1.8864   -1.6257    0.0000 C   0  0  0  0  0  0  0  0  0  0  0  0
    0.5865   -0.8771    0.0000 C   0  0  0  0  0  0  0  0  0  0  0  0
   -0.7133   -0.1285    0.0000 C   0  0  0  0  0  0  0  0  0  0  0  0
   -0.7149    1.3715    0.0000 C   0  0  0  0  0  0  0  0  0  0  0  0
   -2.0846    0.7599    0.0000 C   0  0  0  0  0  0  0  0  0  0  0  0
  1  2  2  0
  2  3  1  0
  2  4  1  0
  4  5  1  0
  4  6  1  0
  4  7  1  0
  7  8  1  0
  8  9  1  0
  9 10  1  1
  9 11  1  0
 11 12  1  1
 12 13  1  0
 13 14  1  0
 14 15  1  6
 14 16  1  0
 16 17  1  0
 17 18  1  0
 18 19  1  0
 19 20  1  0
 20 21  1  0
 20 22  1  0
 20 23  1  0
 23 24  1  6
 24 25  1  0
 26 25  1  6
 26 27  1  0
 26 28  1  0
 28 29  1  1
 28 30  1  0
 30 31  1  0
 31 32  1  0
 32 33  1  1
 32 11  1  0
 32 14  1  0
 28 16  1  0
 26 19  1  0
 27 23  1  0
M  END
>  <identifier>  (179) 
CNP0098450.1

>  <canonical_smiles>  (179) 
C=C(C)C(C)(C)CC[C@@H](C)[C@H]1CC[C@@]2(C)C3CCC4C(C)(C)[C@@H]5CC[C@]4(O5)[C@]3(C)CC[C@]12C

>  <standard_inchi>  (179) 
InChI=1S/C32H54O/c1-21(2)27(4,5)16-13-22(3)23-14-17-30(9)25-12-11-24-28(6,7)26-15-18-32(24,33-26)31(25,10)20-19-29(23,30)8/h22-26H,1,11-20H2,2-10H3/t22-,23-,24?,25?,26+,29-,30+,31-,32-/m1/s1

>  <standard_inchi_key>  (179) 
YCGKSBDRFMKJGQ-FFHDHRDUSA-N

>  <name>  (179) 
nan

>  <iupac_name>  (179) 
(1~{R},2~{R},5~{R},6~{R},9~{S},15~{S})-2,5,9,14,14-pentamethyl-6-[(1~{R})-1,4,4,5-tetramethylhex-5-enyl]-18-oxapentacyclo[13.2.1.0^{1,13}.0^{2,10}.0^{5,9}]octadecane

>  <annotation_level>  (179) 
5

>  <total_atom_count>  (179) 
87

>  <heavy_atom_count>  (179) 
33

>  <molecular_weight>  (179) 
454.78

>  <exact_molecular_weight>  (179) 
454.41747

>  <molecular_formula>  (179) 
C32H54O

>  <alogp>  (179) 
9.21

>  <topological_polar_surface_area>  (179) 
9.23

>  <rotatable_bond_count>  (179) 
5

>  <hydrogen_bond_acceptors>  (179) 
1

>  <hydrogen_bond_donors>  (179) 
0

>  <hydrogen_bond_acceptors_lipinski>  (179) 
1

>  <hydrogen_bond_donors_lipinski>  (179) 
0

>  <lipinski_rule_of_five_violations>  (179) 
1

>  <aromatic_rings_count>  (179) 
0

>  <qed_drug_likeliness>  (179) 
0.38

>  <formal_charge>  (179) 
0

>  <fractioncsp3>  (179) 
0.94

>  <number_of_minimal_rings>  (179) 
5

>  <van_der_walls_volume>  (179) 
477.66

>  <contains_sugar>  (179) 
False

>  <contains_ring_sugars>  (179) 
False

>  <contains_linear_sugars>  (179) 
False

>  <murcko_framework>  (179) 
O1C2CCC13C(CCC4C5CCCC5CCC43)C2

>  <np_likeness>  (179) 
2.67

>  <chemical_class>  (179) 
Prenol lipids

>  <chemical_sub_class>  (179) 
Sesquiterpenoids

>  <chemical_super_class>  (179) 
Lipids and lipid-like molecules

>  <direct_parent_classification>  (179) 
Sesquiterpenoids

>  <np_classifier_pathway>  (179) 
Terpenoids

>  <np_classifier_superclass>  (179) 
Triterpenoids

>  <np_classifier_class>  (179) 
Cycloartane triterpenoids

>  <np_classifier_is_glycoside>  (179) 
False

>  <organisms>  (179) 
Scaphyglottis livida

>  <collections>  (179) 
BIOFACQUIM|Latin America dataset

>  <dois>  (179) 
10.1080/10575630290019967

>  <synonyms>  (179) 
Nidemin

>  <cas>  (179) 
nan

$$$$

     RDKit          2D

 43 48  0  0  0  0  0  0  0  0999 V2000
   -7.7019   -5.9256    0.0000 C   0  0  0  0  0  0  0  0  0  0  0  0
   -6.6056   -4.9018    0.0000 C   0  0  0  0  0  0  0  0  0  0  0  0
   -5.1708   -5.3393    0.0000 C   0  0  0  0  0  0  0  0  0  0  0  0
   -6.9441   -3.4405    0.0000 C   0  0  0  0  0  0  0  0  0  0  0  0
   -5.4827   -3.1020    0.0000 C   0  0  0  0  0  0  0  0  0  0  0  0
   -8.4054   -3.7789    0.0000 C   0  0  0  0  0  0  0  0  0  0  0  0
   -7.2825   -1.9791    0.0000 C   0  0  0  0  0  0  0  0  0  0  0  0
   -6.1862   -0.9554    0.0000 C   0  0  0  0  0  0  0  0  0  0  0  0
   -6.5247    0.5059    0.0000 C   0  0  0  0  0  0  0  0  0  0  0  0
   -7.9595    0.9435    0.0000 C   0  0  0  0  0  0  0  0  0  0  0  0
   -5.4284    1.5297    0.0000 C   0  0  0  0  0  0  0  0  0  0  0  0
   -5.6123    3.0184    0.0000 C   0  0  0  0  0  0  0  0  0  0  0  0
   -4.2533    3.6533    0.0000 C   0  0  0  0  0  0  0  0  0  0  0  0
   -3.2295    2.5570    0.0000 C   0  0  0  0  0  0  0  0  0  0  0  0
   -2.6444    3.9382    0.0000 C   0  0  0  0  0  0  0  0  0  0  0  0
   -1.7297    2.5843    0.0000 C   0  0  0  0  0  0  0  0  0  0  0  0
   -1.0034    3.8967    0.0000 C   0  0  0  0  0  0  0  0  0  0  0  0
    0.4963    3.9239    0.0000 C   0  0  0  0  0  0  0  0  0  0  0  0
    1.2698    2.6387    0.0000 C   0  0  0  0  0  0  0  0  0  0  0  0
    2.7695    2.6660    0.0000 C   0  0  0  0  0  0  0  0  0  0  0  0
    4.1695    3.2045    0.0000 C   0  0  0  0  0  0  0  0  0  0  0  0
    2.4823    4.1382    0.0000 C   0  0  0  0  0  0  0  0  0  0  0  0
    3.5430    1.3808    0.0000 C   0  0  0  0  0  0  0  0  0  0  0  0
    5.0428    1.4080    0.0000 C   0  0  0  0  0  0  0  0  0  0  0  0
    5.7690    2.7205    0.0000 O   0  0  0  0  0  0  0  0  0  0  0  0
    5.8162    0.1228    0.0000 C   0  0  0  0  0  0  0  0  0  0  0  0
    7.3160    0.1501    0.0000 C   0  0  0  0  0  0  0  0  0  0  0  0
    8.0895   -1.1351    0.0000 C   0  0  0  0  0  0  0  0  0  0  0  0
    7.3632   -2.4476    0.0000 C   0  0  0  0  0  0  0  0  0  0  0  0
    8.1367   -3.7328    0.0000 C   0  0  0  0  0  0  0  0  0  0  0  0
    9.6364   -3.7055    0.0000 C   0  0  0  0  0  0  0  0  0  0  0  0
   10.4099   -4.9907    0.0000 O   0  0  0  0  0  0  0  0  0  0  0  0
   10.3627   -2.3931    0.0000 C   0  0  0  0  0  0  0  0  0  0  0  0
    9.5892   -1.1079    0.0000 C   0  0  0  0  0  0  0  0  0  0  0  0
    2.8167    0.0683    0.0000 C   0  0  0  0  0  0  0  0  0  0  0  0
    1.3170    0.0411    0.0000 C   0  0  0  0  0  0  0  0  0  0  0  0
    0.5435    1.3263    0.0000 C   0  0  0  0  0  0  0  0  0  0  0  0
   -0.1828    0.0139    0.0000 C   0  0  0  0  0  0  0  0  0  0  0  0
   -0.9562    1.2991    0.0000 C   0  0  0  0  0  0  0  0  0  0  0  0
   -1.6825   -0.0134    0.0000 C   0  0  0  0  0  0  0  0  0  0  0  0
   -3.1823   -0.0406    0.0000 C   0  0  0  0  0  0  0  0  0  0  0  0
   -3.9558    1.2446    0.0000 C   0  0  0  0  0  0  0  0  0  0  0  0
   -4.8152    0.0152    0.0000 C   0  0  0  0  0  0  0  0  0  0  0  0
  1  2  2  0
  2  3  1  0
  2  4  1  0
  4  5  1  0
  4  6  1  0
  4  7  1  0
  7  8  1  0
  8  9  1  0
  9 10  1  1
  9 11  1  0
 11 12  1  1
 12 13  1  0
 13 14  1  0
 14 15  1  6
 14 16  1  0
 16 17  1  0
 17 18  1  0
 18 19  1  0
 19 20  1  0
 20 21  1  0
 20 22  1  0
 20 23  1  0
 23 24  1  1
 24 25  2  0
 24 26  1  0
 26 27  2  0
 27 28  1  0
 28 29  2  0
 29 30  1  0
 30 31  2  0
 31 32  1  0
 31 33  1  0
 33 34  2  0
 23 35  1  0
 35 36  1  0
 37 36  1  6
 37 38  1  0
 39 38  1  1
 39 40  1  0
 40 41  1  0
 41 42  1  0
 42 43  1  1
 42 11  1  0
 42 14  1  0
 39 16  1  0
 37 19  1  0
 34 28  1  0
 39 37  1  0
M  END
>  <identifier>  (180) 
CNP0289549.1

>  <canonical_smiles>  (180) 
C=C(C)C(C)(C)CC[C@@H](C)[C@H]1CC[C@@]2(C)C3CCC4C(C)(C)[C@@H](C(=O)/C=C/C5=CC=C(O)C=C5)CC[C@@]45C[C@@]35CC[C@]12C

>  <standard_inchi>  (180) 
InChI=1S/C41H60O2/c1-27(2)36(4,5)21-18-28(3)31-19-22-39(9)35-17-16-34-37(6,7)32(33(43)15-12-29-10-13-30(42)14-11-29)20-23-40(34)26-41(35,40)25-24-38(31,39)8/h10-15,28,31-32,34-35,42H,1,16-26H2,2-9H3/b15-12+/t28-,31-,32-,34?,35?,38-,39+,40-,41+/m1/s1

>  <standard_inchi_key>  (180) 
JMXMIHVPTCKCDT-NTDRGAGCSA-N

>  <name>  (180) 
nan

>  <iupac_name>  (180) 
(~{E})-3-(4-hydroxyphenyl)-1-[(1~{S},3~{R},6~{S},12~{S},15~{R},16~{R})-7,7,12,16-tetramethyl-15-[(1~{R})-1,4,4,5-tetramethylhex-5-enyl]-6-pentacyclo[9.7.0.0^{1,3}.0^{3,8}.0^{12,16}]octadecanyl]prop-2-en-1-one

>  <annotation_level>  (180) 
5

>  <total_atom_count>  (180) 
103

>  <heavy_atom_count>  (180) 
43

>  <molecular_weight>  (180) 
584.93

>  <exact_molecular_weight>  (180) 
584.45933

>  <molecular_formula>  (180) 
C41H60O2

>  <alogp>  (180) 
11.05

>  <topological_polar_surface_area>  (180) 
37.30

>  <rotatable_bond_count>  (180) 
8

>  <hydrogen_bond_acceptors>  (180) 
2

>  <hydrogen_bond_donors>  (180) 
1

>  <hydrogen_bond_acceptors_lipinski>  (180) 
2

>  <hydrogen_bond_donors_lipinski>  (180) 
1

>  <lipinski_rule_of_five_violations>  (180) 
2

>  <aromatic_rings_count>  (180) 
1

>  <qed_drug_likeliness>  (180) 
0.24

>  <formal_charge>  (180) 
0

>  <fractioncsp3>  (180) 
0.73

>  <number_of_minimal_rings>  (180) 
6

>  <van_der_walls_volume>  (180) 
600.83

>  <contains_sugar>  (180) 
False

>  <contains_ring_sugars>  (180) 
False

>  <contains_linear_sugars>  (180) 
False

>  <murcko_framework>  (180) 
c1ccc(cc1)C=CCC2CCC34CC54CCC6CCCC6C5CCC3C2

>  <np_likeness>  (180) 
2.41

>  <chemical_class>  (180) 
Steroids and steroid derivatives

>  <chemical_sub_class>  (180) 
Cycloartanols and derivatives

>  <chemical_super_class>  (180) 
Lipids and lipid-like molecules

>  <direct_parent_classification>  (180) 
Cycloartanols and derivatives

>  <np_classifier_pathway>  (180) 
Terpenoids

>  <np_classifier_superclass>  (180) 
Triterpenoids

>  <np_classifier_class>  (180) 
Cycloartane triterpenoids

>  <np_classifier_is_glycoside>  (180) 
False

>  <organisms>  (180) 
Scaphyglottis livida

>  <collections>  (180) 
BIOFACQUIM|Latin America dataset

>  <dois>  (180) 
10.1080/10575630290019967

>  <synonyms>  (180) 
9 19-cyclolanosta-24 24-dimethyl-25-en-3b-yl trans-p-hydroxycinnamate

>  <cas>  (180) 
nan

$$$$

     RDKit          2D

 32 35  0  0  0  0  0  0  0  0999 V2000
    3.4965   -2.2784    0.0000 C   0  0  0  0  0  0  0  0  0  0  0  0
    4.9293   -2.7225    0.0000 C   0  0  0  0  0  0  0  0  0  0  0  0
    5.2611   -4.1853    0.0000 C   0  0  0  0  0  0  0  0  0  0  0  0
    6.0302   -1.7037    0.0000 C   0  0  0  0  0  0  0  0  0  0  0  0
    7.4630   -2.1477    0.0000 C   0  0  0  0  0  0  0  0  0  0  0  0
    5.6984   -0.2409    0.0000 C   0  0  0  0  0  0  0  0  0  0  0  0
    4.2656    0.2032    0.0000 C   0  0  0  0  0  0  0  0  0  0  0  0
    3.9338    1.6660    0.0000 C   0  0  0  0  0  0  0  0  0  0  0  0
    5.0347    2.6848    0.0000 C   0  0  0  0  0  0  0  0  0  0  0  0
    2.5010    2.1101    0.0000 C   0  0  0  0  0  0  0  0  0  0  0  0
    2.0181    3.5302    0.0000 C   0  0  0  0  0  0  0  0  0  0  0  0
    0.5183    3.5098    0.0000 C   0  0  0  0  0  0  0  0  0  0  0  0
    0.0742    2.0770    0.0000 C   0  0  0  0  0  0  0  0  0  0  0  0
   -1.0541    3.0654    0.0000 C   0  0  0  0  0  0  0  0  0  0  0  0
   -1.2877    1.4483    0.0000 C   0  0  0  0  0  0  0  0  0  0  0  0
   -2.5131    2.3133    0.0000 C   0  0  0  0  0  0  0  0  0  0  0  0
   -3.8750    1.6846    0.0000 C   0  0  0  0  0  0  0  0  0  0  0  0
   -4.0114    0.1908    0.0000 C   0  0  0  0  0  0  0  0  0  0  0  0
   -5.3733   -0.4379    0.0000 C   0  0  0  0  0  0  0  0  0  0  0  0
   -6.8681   -0.5629    0.0000 C   0  0  0  0  0  0  0  0  0  0  0  0
   -5.7560    1.0125    0.0000 C   0  0  0  0  0  0  0  0  0  0  0  0
   -5.5097   -1.9317    0.0000 C   0  0  0  0  0  0  0  0  0  0  0  0
   -6.8716   -2.5604    0.0000 O   0  0  0  0  0  0  0  0  0  0  0  0
   -4.2843   -2.7967    0.0000 C   0  0  0  0  0  0  0  0  0  0  0  0
   -2.9224   -2.1680    0.0000 C   0  0  0  0  0  0  0  0  0  0  0  0
   -2.7860   -0.6742    0.0000 C   0  0  0  0  0  0  0  0  0  0  0  0
   -1.5606   -1.5393    0.0000 C   0  0  0  0  0  0  0  0  0  0  0  0
   -1.4241   -0.0455    0.0000 C   0  0  0  0  0  0  0  0  0  0  0  0
   -0.1987   -0.9106    0.0000 C   0  0  0  0  0  0  0  0  0  0  0  0
    1.1632   -0.2818    0.0000 C   0  0  0  0  0  0  0  0  0  0  0  0
    1.2996    1.2119    0.0000 C   0  0  0  0  0  0  0  0  0  0  0  0
    2.6088    0.4797    0.0000 C   0  0  0  0  0  0  0  0  0  0  0  0
  1  2  2  0
  2  3  1  0
  2  4  1  0
  4  5  1  6
  4  6  1  0
  6  7  1  0
  7  8  1  0
  8  9  1  6
  8 10  1  0
 10 11  1  6
 11 12  1  0
 12 13  1  0
 13 14  1  1
 13 15  1  0
 15 16  1  0
 16 17  1  0
 17 18  1  0
 18 19  1  0
 19 20  1  0
 19 21  1  0
 19 22  1  0
 22 23  1  6
 22 24  1  0
 24 25  1  0
 25 26  1  0
 26 27  1  6
 26 28  1  0
 28 29  2  0
 29 30  1  0
 30 31  1  0
 31 32  1  6
 31 10  1  0
 31 13  1  0
 28 15  1  0
 26 18  1  0
M  END
>  <identifier>  (181) 
CNP0103418.1

>  <canonical_smiles>  (181) 
C=C(C)[C@@H](C)CC[C@@H](C)[C@H]1CC[C@@]2(C)C3CCC4C(C)(C)[C@@H](O)CC[C@]4(C)C3=CC[C@]12C

>  <standard_inchi>  (181) 
InChI=1S/C31H52O/c1-20(2)21(3)10-11-22(4)23-14-18-31(9)25-12-13-26-28(5,6)27(32)16-17-29(26,7)24(25)15-19-30(23,31)8/h15,21-23,25-27,32H,1,10-14,16-19H2,2-9H3/t21-,22+,23+,25?,26?,27-,29+,30+,31-/m0/s1

>  <standard_inchi_key>  (181) 
BCONSRYNVDIUFV-HEMYWYTFSA-N

>  <name>  (181) 
nan

>  <iupac_name>  (181) 
(3~{S},10~{S},13~{R},14~{S},17~{R})-4,4,10,13,14-pentamethyl-17-[(1~{R},4~{S})-1,4,5-trimethylhex-5-enyl]-2,3,5,6,7,8,12,15,16,17-decahydro-1~{H}-cyclopenta[a]phenanthren-3-ol

>  <annotation_level>  (181) 
5

>  <total_atom_count>  (181) 
84

>  <heavy_atom_count>  (181) 
32

>  <molecular_weight>  (181) 
440.76

>  <exact_molecular_weight>  (181) 
440.40182

>  <molecular_formula>  (181) 
C31H52O

>  <alogp>  (181) 
8.58

>  <topological_polar_surface_area>  (181) 
20.23

>  <rotatable_bond_count>  (181) 
5

>  <hydrogen_bond_acceptors>  (181) 
1

>  <hydrogen_bond_donors>  (181) 
1

>  <hydrogen_bond_acceptors_lipinski>  (181) 
1

>  <hydrogen_bond_donors_lipinski>  (181) 
1

>  <lipinski_rule_of_five_violations>  (181) 
1

>  <aromatic_rings_count>  (181) 
0

>  <qed_drug_likeliness>  (181) 
0.42

>  <formal_charge>  (181) 
0

>  <fractioncsp3>  (181) 
0.87

>  <number_of_minimal_rings>  (181) 
4

>  <van_der_walls_volume>  (181) 
469.13

>  <contains_sugar>  (181) 
False

>  <contains_ring_sugars>  (181) 
False

>  <contains_linear_sugars>  (181) 
False

>  <murcko_framework>  (181) 
C1=C2C3CCCCC3CCC2C4CCCC4C1

>  <np_likeness>  (181) 
3.48

>  <chemical_class>  (181) 
Steroids and steroid derivatives

>  <chemical_sub_class>  (181) 
Ergostane steroids

>  <chemical_super_class>  (181) 
Lipids and lipid-like molecules

>  <direct_parent_classification>  (181) 
Ergosterols and derivatives

>  <np_classifier_pathway>  (181) 
Terpenoids

>  <np_classifier_superclass>  (181) 
Triterpenoids

>  <np_classifier_class>  (181) 
Lanostane, Tirucallane and Euphane triterpenoids

>  <np_classifier_is_glycoside>  (181) 
False

>  <organisms>  (181) 
Scaphyglottis livida

>  <collections>  (181) 
BIOFACQUIM|Latin America dataset

>  <dois>  (181) 
10.1080/10575630290019967

>  <synonyms>  (181) 
5a-lanosta-24(S)-methyl-9(11) 25-dien-3b-ol

>  <cas>  (181) 
nan

$$$$

     RDKit          2D

 33 36  0  0  0  0  0  0  0  0999 V2000
    7.6850   -3.0496    0.0000 C   0  0  0  0  0  0  0  0  0  0  0  0
    6.2275   -2.6949    0.0000 C   0  0  0  0  0  0  0  0  0  0  0  0
    5.1916   -3.7798    0.0000 C   0  0  0  0  0  0  0  0  0  0  0  0
    5.8059   -1.2554    0.0000 C   0  0  0  0  0  0  0  0  0  0  0  0
    4.3664   -1.6770    0.0000 C   0  0  0  0  0  0  0  0  0  0  0  0
    7.2454   -0.8338    0.0000 C   0  0  0  0  0  0  0  0  0  0  0  0
    5.3843    0.1842    0.0000 C   0  0  0  0  0  0  0  0  0  0  0  0
    3.9269    0.5388    0.0000 C   0  0  0  0  0  0  0  0  0  0  0  0
    3.5053    1.9784    0.0000 C   0  0  0  0  0  0  0  0  0  0  0  0
    4.5412    3.0632    0.0000 C   0  0  0  0  0  0  0  0  0  0  0  0
    2.0478    2.3330    0.0000 C   0  0  0  0  0  0  0  0  0  0  0  0
    1.4781    3.7206    0.0000 C   0  0  0  0  0  0  0  0  0  0  0  0
   -0.0177    3.6076    0.0000 C   0  0  0  0  0  0  0  0  0  0  0  0
   -0.3723    2.1501    0.0000 C   0  0  0  0  0  0  0  0  0  0  0  0
   -1.5595    3.0669    0.0000 C   0  0  0  0  0  0  0  0  0  0  0  0
   -1.6928    1.4384    0.0000 C   0  0  0  0  0  0  0  0  0  0  0  0
   -2.9693    2.2261    0.0000 C   0  0  0  0  0  0  0  0  0  0  0  0
   -4.2897    1.5145    0.0000 C   0  0  0  0  0  0  0  0  0  0  0  0
   -4.3336    0.0151    0.0000 C   0  0  0  0  0  0  0  0  0  0  0  0
   -5.6540   -0.6966    0.0000 C   0  0  0  0  0  0  0  0  0  0  0  0
   -7.1382   -0.9137    0.0000 C   0  0  0  0  0  0  0  0  0  0  0  0
   -6.1256    0.7274    0.0000 C   0  0  0  0  0  0  0  0  0  0  0  0
   -5.6979   -2.1959    0.0000 C   0  0  0  0  0  0  0  0  0  0  0  0
   -7.0184   -2.9076    0.0000 O   0  0  0  0  0  0  0  0  0  0  0  0
   -4.4214   -2.9836    0.0000 C   0  0  0  0  0  0  0  0  0  0  0  0
   -3.1010   -2.2719    0.0000 C   0  0  0  0  0  0  0  0  0  0  0  0
   -3.0571   -0.7726    0.0000 C   0  0  0  0  0  0  0  0  0  0  0  0
   -1.7806   -1.5603    0.0000 C   0  0  0  0  0  0  0  0  0  0  0  0
   -1.7367   -0.0609    0.0000 C   0  0  0  0  0  0  0  0  0  0  0  0
   -0.4601   -0.8486    0.0000 C   0  0  0  0  0  0  0  0  0  0  0  0
    0.8603   -0.1370    0.0000 C   0  0  0  0  0  0  0  0  0  0  0  0
    0.9042    1.3624    0.0000 C   0  0  0  0  0  0  0  0  0  0  0  0
    2.2561    0.7124    0.0000 C   0  0  0  0  0  0  0  0  0  0  0  0
  1  2  2  0
  2  3  1  0
  2  4  1  0
  4  5  1  0
  4  6  1  0
  4  7  1  0
  7  8  1  0
  8  9  1  0
  9 10  1  6
  9 11  1  0
 11 12  1  6
 12 13  1  0
 13 14  1  0
 14 15  1  1
 14 16  1  0
 16 17  1  0
 17 18  1  0
 18 19  1  0
 19 20  1  0
 20 21  1  0
 20 22  1  0
 20 23  1  0
 23 24  1  6
 23 25  1  0
 25 26  1  0
 26 27  1  0
 27 28  1  6
 27 29  1  0
 29 30  2  0
 30 31  1  0
 31 32  1  0
 32 33  1  6
 32 11  1  0
 32 14  1  0
 29 16  1  0
 27 19  1  0
M  END
>  <identifier>  (182) 
CNP0223339.1

>  <canonical_smiles>  (182) 
C=C(C)C(C)(C)CC[C@@H](C)[C@H]1CC[C@@]2(C)C3CCC4C(C)(C)[C@@H](O)CC[C@]4(C)C3=CC[C@]12C

>  <standard_inchi>  (182) 
InChI=1S/C32H54O/c1-21(2)28(4,5)17-13-22(3)23-14-19-32(10)25-11-12-26-29(6,7)27(33)16-18-30(26,8)24(25)15-20-31(23,32)9/h15,22-23,25-27,33H,1,11-14,16-20H2,2-10H3/t22-,23-,25?,26?,27+,30-,31-,32+/m1/s1

>  <standard_inchi_key>  (182) 
QGFZRJUQPWGMGR-HLYDRURXSA-N

>  <name>  (182) 
nan

>  <iupac_name>  (182) 
(3~{S},10~{S},13~{R},14~{S},17~{R})-4,4,10,13,14-pentamethyl-17-[(1~{R})-1,4,4,5-tetramethylhex-5-enyl]-2,3,5,6,7,8,12,15,16,17-decahydro-1~{H}-cyclopenta[a]phenanthren-3-ol

>  <annotation_level>  (182) 
5

>  <total_atom_count>  (182) 
87

>  <heavy_atom_count>  (182) 
33

>  <molecular_weight>  (182) 
454.78

>  <exact_molecular_weight>  (182) 
454.41747

>  <molecular_formula>  (182) 
C32H54O

>  <alogp>  (182) 
8.97

>  <topological_polar_surface_area>  (182) 
20.23

>  <rotatable_bond_count>  (182) 
5

>  <hydrogen_bond_acceptors>  (182) 
1

>  <hydrogen_bond_donors>  (182) 
1

>  <hydrogen_bond_acceptors_lipinski>  (182) 
1

>  <hydrogen_bond_donors_lipinski>  (182) 
1

>  <lipinski_rule_of_five_violations>  (182) 
1

>  <aromatic_rings_count>  (182) 
0

>  <qed_drug_likeliness>  (182) 
0.41

>  <formal_charge>  (182) 
0

>  <fractioncsp3>  (182) 
0.88

>  <number_of_minimal_rings>  (182) 
4

>  <van_der_walls_volume>  (182) 
485.74

>  <contains_sugar>  (182) 
False

>  <contains_ring_sugars>  (182) 
False

>  <contains_linear_sugars>  (182) 
False

>  <murcko_framework>  (182) 
C1=C2C3CCCCC3CCC2C4CCCC4C1

>  <np_likeness>  (182) 
3.21

>  <chemical_class>  (182) 
Steroids and steroid derivatives

>  <chemical_sub_class>  (182) 
Ergostane steroids

>  <chemical_super_class>  (182) 
Lipids and lipid-like molecules

>  <direct_parent_classification>  (182) 
Ergosterols and derivatives

>  <np_classifier_pathway>  (182) 
Terpenoids

>  <np_classifier_superclass>  (182) 
Triterpenoids

>  <np_classifier_class>  (182) 
Lanostane, Tirucallane and Euphane triterpenoids

>  <np_classifier_is_glycoside>  (182) 
False

>  <organisms>  (182) 
Scaphyglottis livida

>  <collections>  (182) 
BIOFACQUIM|Latin America dataset

>  <dois>  (182) 
10.1080/10575630290019967

>  <synonyms>  (182) 
5a-lanosta24 24-dimethyl-9(11) 25-dien-3b-ol

>  <cas>  (182) 
nan

$$$$

     RDKit          2D

 27 32  0  0  0  0  0  0  0  0999 V2000
   -1.5864    2.6836    0.0000 C   0  0  0  0  0  0  0  0  0  0  0  0
   -0.4169    1.7443    0.0000 C   0  0  0  0  0  0  0  0  0  0  0  0
    0.3050    3.0591    0.0000 C   0  0  0  0  0  0  0  0  0  0  0  0
    1.0033    1.2616    0.0000 C   0  0  0  0  0  0  0  0  0  0  0  0
    1.2954   -0.2096    0.0000 C   0  0  0  0  0  0  0  0  0  0  0  0
    0.1673   -1.1983    0.0000 C   0  0  0  0  0  0  0  0  0  0  0  0
   -1.2529   -0.7156    0.0000 C   0  0  0  0  0  0  0  0  0  0  0  0
   -2.3810   -1.7042    0.0000 C   0  0  0  0  0  0  0  0  0  0  0  0
   -3.8013   -1.2215    0.0000 N   0  0  0  0  0  0  0  0  0  0  0  0
   -5.1103   -1.9540    0.0000 C   0  0  0  0  0  0  0  0  0  0  0  0
   -6.2114   -0.9354    0.0000 C   0  0  0  0  0  0  0  0  0  0  0  0
   -5.5829    0.4266    0.0000 C   0  0  0  0  0  0  0  0  0  0  0  0
   -4.0934    0.2497    0.0000 C   0  0  0  0  0  0  0  0  0  0  0  0
   -2.9652    1.2384    0.0000 C   0  0  0  0  0  0  0  0  0  0  0  0
   -1.5450    0.7557    0.0000 C   0  0  0  0  0  0  0  0  0  0  0  0
   -3.3315   -0.0625    0.0000 C   0  0  0  0  0  0  0  0  0  0  0  0
   -3.7057   -0.7378    0.0000 O   0  0  0  0  0  0  0  0  0  0  0  0
   -2.0473   -0.4989    0.0000 N   0  0  0  0  0  0  0  0  0  0  0  0
    2.7850   -0.3865    0.0000 C   0  0  0  0  0  0  0  0  0  0  0  0
    3.6502   -1.6118    0.0000 C   0  0  0  0  0  0  0  0  0  0  0  0
    5.1440   -1.4750    0.0000 C   0  0  0  0  0  0  0  0  0  0  0  0
    6.0093   -2.7003    0.0000 Cl  0  0  0  0  0  0  0  0  0  0  0  0
    5.7725   -0.1131    0.0000 C   0  0  0  0  0  0  0  0  0  0  0  0
    7.2662    0.0237    0.0000 Cl  0  0  0  0  0  0  0  0  0  0  0  0
    4.9072    1.1122    0.0000 C   0  0  0  0  0  0  0  0  0  0  0  0
    3.4134    0.9755    0.0000 C   0  0  0  0  0  0  0  0  0  0  0  0
    2.3123    1.9941    0.0000 N   0  0  0  0  0  0  0  0  0  0  0  0
  1  2  1  0
  2  3  1  0
  2  4  1  0
  4  5  2  0
  5  6  1  0
  7  6  1  6
  7  8  1  0
  8  9  1  0
  9 10  1  0
 10 11  1  0
 11 12  1  0
 13 12  1  6
 13 14  1  0
 14 15  1  0
 13 16  1  0
 16 17  2  0
 16 18  1  0
  5 19  1  0
 19 20  2  0
 20 21  1  0
 21 22  1  0
 21 23  2  0
 23 24  1  0
 23 25  1  0
 25 26  2  0
 26 27  1  0
 15  2  1  1
 26 19  1  0
 27  4  1  0
 15  7  1  0
 18  7  1  0
 13  9  1  0
M  END
>  <identifier>  (183) 
CNP0418076.1

>  <canonical_smiles>  (183) 
CC1(C)C2=C(C[C@@]34CN5CCC[C@]5(C[C@@H]13)C(=O)N4)C1=CC(Cl)=C(Cl)C=C1N2

>  <standard_inchi>  (183) 
InChI=1S/C21H23Cl2N3O/c1-19(2)16-9-21-4-3-5-26(21)10-20(16,25-18(21)27)8-12-11-6-13(22)14(23)7-15(11)24-17(12)19/h6-7,16,24H,3-5,8-10H2,1-2H3,(H,25,27)/t16-,20+,21-/m0/s1

>  <standard_inchi_key>  (183) 
GZGGCZADGIBRHT-DQLDELGASA-N

>  <name>  (183) 
Malbrancheamide

>  <iupac_name>  (183) 
(1~{S},13~{S},15~{S})-6,7-dichloro-12,12-dimethyl-10,19,21-triazahexacyclo[13.5.2.0^{1,13}.0^{3,11}.0^{4,9}.0^{15,19}]docosa-3(11),4,6,8-tetraen-22-one

>  <annotation_level>  (183) 
5

>  <total_atom_count>  (183) 
50

>  <heavy_atom_count>  (183) 
27

>  <molecular_weight>  (183) 
404.34

>  <exact_molecular_weight>  (183) 
403.12182

>  <molecular_formula>  (183) 
C21H23Cl2N3O

>  <alogp>  (183) 
4.03

>  <topological_polar_surface_area>  (183) 
48.13

>  <rotatable_bond_count>  (183) 
0

>  <hydrogen_bond_acceptors>  (183) 
2

>  <hydrogen_bond_donors>  (183) 
2

>  <hydrogen_bond_acceptors_lipinski>  (183) 
2

>  <hydrogen_bond_donors_lipinski>  (183) 
2

>  <lipinski_rule_of_five_violations>  (183) 
0

>  <aromatic_rings_count>  (183) 
2

>  <qed_drug_likeliness>  (183) 
0.70

>  <formal_charge>  (183) 
0

>  <fractioncsp3>  (183) 
0.57

>  <number_of_minimal_rings>  (183) 
7

>  <van_der_walls_volume>  (183) 
339.06

>  <contains_sugar>  (183) 
False

>  <contains_ring_sugars>  (183) 
False

>  <contains_linear_sugars>  (183) 
False

>  <murcko_framework>  (183) 
c1ccc2c(c1)[nH]c3c2CC45NCC6(N(CCC6)C4)CC5C3

>  <np_likeness>  (183) 
0.84

>  <chemical_class>  (183) 
Quinolines and derivatives

>  <chemical_sub_class>  (183) 
Pyrroloquinolines

>  <chemical_super_class>  (183) 
Organoheterocyclic compounds

>  <direct_parent_classification>  (183) 
Pyrroloquinolines

>  <np_classifier_pathway>  (183) 
Alkaloids

>  <np_classifier_superclass>  (183) 
Tryptophan alkaloids

>  <np_classifier_class>  (183) 
Carboline alkaloids

>  <np_classifier_is_glycoside>  (183) 
False

>  <organisms>  (183) 
Malbranchea aurantiaca

>  <collections>  (183) 
BIOFACQUIM|Latin America dataset|NPAtlas

>  <dois>  (183) 
10.1016/j.tet.2005.11.047|10.1080/14786410802012361

>  <synonyms>  (183) 
(+)-malbrancheamide|CHEMBL508749|(1S|13S|15S)-6|7-dichloro-12|12-dimethyl-10|19|21-triazahexacyclo13.5.2.01|13.03|11.04|9.015|19docosa-3(11)|4|6|8-tetraen-22-one|(5aS|12aS|13aS)-8|9-dichloro-12|12-dimethyl-2|3|11|12|12a|13-hexahydro-1H|5H|6H-5a|13a-(epiminomethano)indolizino7|6-bcarbazol-14-one|SCHEMBL9942106|CHEBI:204248|BDBM50540272|J6P|Malbrancheamide

>  <cas>  (183) 
nan

$$$$

     RDKit          2D

 26 31  0  0  0  0  0  0  0  0999 V2000
   -1.2123    2.6499    0.0000 C   0  0  0  0  0  0  0  0  0  0  0  0
   -0.0959    1.6481    0.0000 C   0  0  0  0  0  0  0  0  0  0  0  0
    0.6968    2.9216    0.0000 C   0  0  0  0  0  0  0  0  0  0  0  0
    1.2958    1.0886    0.0000 C   0  0  0  0  0  0  0  0  0  0  0  0
    1.5071   -0.3964    0.0000 C   0  0  0  0  0  0  0  0  0  0  0  0
    0.3267   -1.3219    0.0000 C   0  0  0  0  0  0  0  0  0  0  0  0
   -1.0650   -0.7624    0.0000 C   0  0  0  0  0  0  0  0  0  0  0  0
   -2.2455   -1.6879    0.0000 C   0  0  0  0  0  0  0  0  0  0  0  0
   -3.6372   -1.1284    0.0000 N   0  0  0  0  0  0  0  0  0  0  0  0
   -4.9843   -1.7883    0.0000 C   0  0  0  0  0  0  0  0  0  0  0  0
   -6.0281   -0.7111    0.0000 C   0  0  0  0  0  0  0  0  0  0  0  0
   -5.3262    0.6146    0.0000 C   0  0  0  0  0  0  0  0  0  0  0  0
   -3.8485    0.3566    0.0000 C   0  0  0  0  0  0  0  0  0  0  0  0
   -2.6681    1.2822    0.0000 C   0  0  0  0  0  0  0  0  0  0  0  0
   -1.2763    0.7226    0.0000 C   0  0  0  0  0  0  0  0  0  0  0  0
   -3.1048    0.0033    0.0000 C   0  0  0  0  0  0  0  0  0  0  0  0
   -3.5154   -0.6507    0.0000 O   0  0  0  0  0  0  0  0  0  0  0  0
   -1.8464   -0.5027    0.0000 N   0  0  0  0  0  0  0  0  0  0  0  0
    2.9848   -0.6544    0.0000 C   0  0  0  0  0  0  0  0  0  0  0  0
    3.7819   -1.9251    0.0000 C   0  0  0  0  0  0  0  0  0  0  0  0
    5.2808   -1.8701    0.0000 C   0  0  0  0  0  0  0  0  0  0  0  0
    5.9828   -0.5445    0.0000 C   0  0  0  0  0  0  0  0  0  0  0  0
    7.4818   -0.4896    0.0000 Cl  0  0  0  0  0  0  0  0  0  0  0  0
    5.1857    0.7262    0.0000 C   0  0  0  0  0  0  0  0  0  0  0  0
    3.6867    0.6713    0.0000 C   0  0  0  0  0  0  0  0  0  0  0  0
    2.6429    1.7485    0.0000 N   0  0  0  0  0  0  0  0  0  0  0  0
  1  2  1  0
  2  3  1  0
  2  4  1  0
  4  5  2  0
  5  6  1  0
  7  6  1  6
  7  8  1  0
  8  9  1  0
  9 10  1  0
 10 11  1  0
 11 12  1  0
 13 12  1  6
 13 14  1  0
 14 15  1  0
 13 16  1  0
 16 17  2  0
 16 18  1  0
  5 19  1  0
 19 20  2  0
 20 21  1  0
 21 22  2  0
 22 23  1  0
 22 24  1  0
 24 25  2  0
 25 26  1  0
 15  2  1  1
 25 19  1  0
 26  4  1  0
 15  7  1  0
 18  7  1  0
 13  9  1  0
M  END
>  <identifier>  (184) 
CNP0202913.1

>  <canonical_smiles>  (184) 
CC1(C)C2=C(C[C@@]34CN5CCC[C@]5(C[C@@H]13)C(=O)N4)C1=CC=C(Cl)C=C1N2

>  <standard_inchi>  (184) 
InChI=1S/C21H24ClN3O/c1-19(2)16-10-21-6-3-7-25(21)11-20(16,24-18(21)26)9-14-13-5-4-12(22)8-15(13)23-17(14)19/h4-5,8,16,23H,3,6-7,9-11H2,1-2H3,(H,24,26)/t16-,20+,21-/m0/s1

>  <standard_inchi_key>  (184) 
DXPVAKSJZFQGSS-DQLDELGASA-N

>  <name>  (184) 
malbrancheamide B

>  <iupac_name>  (184) 
(1~{S},13~{S},15~{S})-7-chloro-12,12-dimethyl-10,19,21-triazahexacyclo[13.5.2.0^{1,13}.0^{3,11}.0^{4,9}.0^{15,19}]docosa-3(11),4,6,8-tetraen-22-one

>  <annotation_level>  (184) 
5

>  <total_atom_count>  (184) 
50

>  <heavy_atom_count>  (184) 
26

>  <molecular_weight>  (184) 
369.9

>  <exact_molecular_weight>  (184) 
369.16079

>  <molecular_formula>  (184) 
C21H24ClN3O

>  <alogp>  (184) 
3.38

>  <topological_polar_surface_area>  (184) 
48.13

>  <rotatable_bond_count>  (184) 
0

>  <hydrogen_bond_acceptors>  (184) 
2

>  <hydrogen_bond_donors>  (184) 
2

>  <hydrogen_bond_acceptors_lipinski>  (184) 
2

>  <hydrogen_bond_donors_lipinski>  (184) 
2

>  <lipinski_rule_of_five_violations>  (184) 
0

>  <aromatic_rings_count>  (184) 
2

>  <qed_drug_likeliness>  (184) 
0.75

>  <formal_charge>  (184) 
0

>  <fractioncsp3>  (184) 
0.57

>  <number_of_minimal_rings>  (184) 
7

>  <van_der_walls_volume>  (184) 
322.76

>  <contains_sugar>  (184) 
False

>  <contains_ring_sugars>  (184) 
False

>  <contains_linear_sugars>  (184) 
False

>  <murcko_framework>  (184) 
c1ccc2c(c1)[nH]c3c2CC45NCC6(N(CCC6)C4)CC5C3

>  <np_likeness>  (184) 
0.81

>  <chemical_class>  (184) 
Quinolines and derivatives

>  <chemical_sub_class>  (184) 
Pyrroloquinolines

>  <chemical_super_class>  (184) 
Organoheterocyclic compounds

>  <direct_parent_classification>  (184) 
Pyrroloquinolines

>  <np_classifier_pathway>  (184) 
Alkaloids

>  <np_classifier_superclass>  (184) 
Tryptophan alkaloids

>  <np_classifier_class>  (184) 
Carboline alkaloids

>  <np_classifier_is_glycoside>  (184) 
False

>  <organisms>  (184) 
Malbranchea aurantiaca

>  <collections>  (184) 
BIOFACQUIM|Latin America dataset|NPAtlas

>  <dois>  (184) 
10.1080/14786410802012361

>  <synonyms>  (184) 
(1S|13S|15S)-7-chloro-12|12-dimethyl-10|19|21-triazahexacyclo13.5.2.01|13.03|11.04|9.015|19docosa-3(11)|4(9)|5|7-tetraen-22-one|(5as|12as|13as)-9-Chloro-12|12-Dimethyl-2|3|11|12|12a|13-Hexahydro-1h|5h|6h-5a|13a-(Epiminomethano)indolizino7|6-Bcarbazol-14-One|MB5|CHEMBL461147|CHEBI:201088|Malbrancheamide B

>  <cas>  (184) 
nan

$$$$

     RDKit          2D

 22 26  0  0  0  0  0  0  0  0999 V2000
   -6.3500    0.3006    0.0000 C   0  0  0  0  0  0  0  0  0  0  0  0
   -4.8669    0.0763    0.0000 C   0  0  0  0  0  0  0  0  0  0  0  0
   -2.1000   -0.1076    0.0000 C   0  0  0  0  0  0  0  0  0  0  0  0
   -1.1257   -1.2481    0.0000 C   0  0  0  0  0  0  0  0  0  0  0  0
    0.0465   -2.1840    0.0000 C   0  0  0  0  0  0  0  0  0  0  0  0
    1.4431   -1.6367    0.0000 C   0  0  0  0  0  0  0  0  0  0  0  0
    1.6675   -0.1536    0.0000 C   0  0  0  0  0  0  0  0  0  0  0  0
    3.0641    0.3937    0.0000 C   0  0  0  0  0  0  0  0  0  0  0  0
    4.5636    0.4303    0.0000 C   0  0  0  0  0  0  0  0  0  0  0  0
    3.3605   -1.0767    0.0000 C   0  0  0  0  0  0  0  0  0  0  0  0
    2.2353   -2.0687    0.0000 O   0  0  0  0  0  0  0  0  0  0  0  0
    4.7821   -1.5552    0.0000 O   0  0  0  0  0  0  0  0  0  0  0  0
    3.2884    1.8768    0.0000 C   0  0  0  0  0  0  0  0  0  0  0  0
    2.1161    2.8127    0.0000 C   0  0  0  0  0  0  0  0  0  0  0  0
    0.7195    2.2654    0.0000 C   0  0  0  0  0  0  0  0  0  0  0  0
    0.4952    0.7823    0.0000 C   0  0  0  0  0  0  0  0  0  0  0  0
   -0.6771    1.7181    0.0000 C   0  0  0  0  0  0  0  0  0  0  0  0
   -0.9014    0.2350    0.0000 C   0  0  0  0  0  0  0  0  0  0  0  0
   -2.0737    1.1708    0.0000 C   0  0  0  0  0  0  0  0  0  0  0  0
   -3.4703    0.6236    0.0000 C   0  0  0  0  0  0  0  0  0  0  0  0
   -3.6946   -0.8596    0.0000 C   0  0  0  0  0  0  0  0  0  0  0  0
   -2.5223   -1.7954    0.0000 C   0  0  0  0  0  0  0  0  0  0  0  0
  2  1  1  6
  2  3  1  0
  3  4  1  0
  4  5  1  0
  5  6  1  0
  7  6  1  1
  7  8  1  0
  8  9  1  6
  8 10  1  0
 10 11  2  0
 10 12  1  0
  8 13  1  0
 13 14  1  0
 14 15  1  0
 15 16  1  0
 16 17  1  1
 16 18  1  0
 18 19  1  0
 20 19  1  6
 20 21  1  0
 21 22  1  6
 20  2  1  0
 21  2  1  0
 18  4  1  0
 22  4  1  0
 16  7  1  0
M  END
>  <identifier>  (185) 
CNP0281436.1

>  <canonical_smiles>  (185) 
C[C@@]12CC34CC[C@@H]5[C@](C)(C(=O)O)CCC[C@@]5(C)C3C[C@@H]1[C@@H]2C4

>  <standard_inchi>  (185) 
InChI=1S/C20H30O2/c1-17-6-4-7-18(2,16(21)22)14(17)5-8-20-10-13-12(9-15(17)20)19(13,3)11-20/h12-15H,4-11H2,1-3H3,(H,21,22)/t12-,13+,14+,15?,17-,18-,19-,20?/m1/s1

>  <standard_inchi_key>  (185) 
FLGAFUAMEXILLB-ADSLCRHLSA-N

>  <name>  (185) 
Trhachylobanoic acid

>  <iupac_name>  (185) 
(4~{S},5~{R},9~{S},12~{R},13~{R},14~{S})-5,9,13-trimethylpentacyclo[11.2.1.0^{1,10}.0^{4,9}.0^{12,14}]hexadecane-5-carboxylic acid

>  <annotation_level>  (185) 
5

>  <total_atom_count>  (185) 
52

>  <heavy_atom_count>  (185) 
22

>  <molecular_weight>  (185) 
302.46

>  <exact_molecular_weight>  (185) 
302.22458

>  <molecular_formula>  (185) 
C20H30O2

>  <alogp>  (185) 
4.73

>  <topological_polar_surface_area>  (185) 
37.30

>  <rotatable_bond_count>  (185) 
1

>  <hydrogen_bond_acceptors>  (185) 
1

>  <hydrogen_bond_donors>  (185) 
1

>  <hydrogen_bond_acceptors_lipinski>  (185) 
1

>  <hydrogen_bond_donors_lipinski>  (185) 
1

>  <lipinski_rule_of_five_violations>  (185) 
0

>  <aromatic_rings_count>  (185) 
0

>  <qed_drug_likeliness>  (185) 
0.76

>  <formal_charge>  (185) 
0

>  <fractioncsp3>  (185) 
0.95

>  <number_of_minimal_rings>  (185) 
6

>  <van_der_walls_volume>  (185) 
299.02

>  <contains_sugar>  (185) 
False

>  <contains_ring_sugars>  (185) 
False

>  <contains_linear_sugars>  (185) 
False

>  <murcko_framework>  (185) 
C1CCC2C(C1)CCC34CC5C(CC23)C5C4

>  <np_likeness>  (185) 
3.39

>  <chemical_class>  (185) 
Prenol lipids

>  <chemical_sub_class>  (185) 
Diterpenoids

>  <chemical_super_class>  (185) 
Lipids and lipid-like molecules

>  <direct_parent_classification>  (185) 
Atisane diterpenoids

>  <np_classifier_pathway>  (185) 
Terpenoids

>  <np_classifier_superclass>  (185) 
Diterpenoids

>  <np_classifier_class>  (185) 
Trachylobane diterpenoids

>  <np_classifier_is_glycoside>  (185) 
False

>  <organisms>  (185) 
Croton insularis|Croton macrostachys A.Rich|Iostephane heterophylla

>  <collections>  (185) 
Australian natural products|BIOFACQUIM|ConMedNP|KNApSaCK|Latin America dataset|Super Natural II|TCMDB-Taiwan (Traditional Chinese Medicine database)|ZINC NP

>  <dois>  (185) 
10.1021/np030423p|10.1080/10575630108041265

>  <synonyms>  (185) 
Trhachylobanoic acid|Trachyloban-18-oic acid

>  <cas>  (185) 
nan

$$$$

     RDKit          2D

 16 16  0  0  0  0  0  0  0  0999 V2000
    6.2245    1.5652    0.0000 C   0  0  0  0  0  0  0  0  0  0  0  0
    5.1864    0.4825    0.0000 C   0  0  0  0  0  0  0  0  0  0  0  0
    5.6051   -0.9579    0.0000 C   0  0  0  0  0  0  0  0  0  0  0  0
    3.7297    0.8401    0.0000 C   0  0  0  0  0  0  0  0  0  0  0  0
    2.6916   -0.2427    0.0000 C   0  0  0  0  0  0  0  0  0  0  0  0
    1.2349    0.1149    0.0000 C   0  0  0  0  0  0  0  0  0  0  0  0
    0.1968   -0.9679    0.0000 C   0  0  0  0  0  0  0  0  0  0  0  0
    0.6155   -2.4083    0.0000 C   0  0  0  0  0  0  0  0  0  0  0  0
   -1.2600   -0.6103    0.0000 C   0  0  0  0  0  0  0  0  0  0  0  0
   -2.2980   -1.6931    0.0000 C   0  0  0  0  0  0  0  0  0  0  0  0
   -3.7548   -1.3355    0.0000 C   0  0  0  0  0  0  0  0  0  0  0  0
   -4.1735    0.1049    0.0000 C   0  0  0  0  0  0  0  0  0  0  0  0
   -5.6302    0.4625    0.0000 C   0  0  0  0  0  0  0  0  0  0  0  0
   -3.1354    1.1877    0.0000 C   0  0  0  0  0  0  0  0  0  0  0  0
   -3.5541    2.6280    0.0000 O   0  0  0  0  0  0  0  0  0  0  0  0
   -1.6786    0.8301    0.0000 C   0  0  0  0  0  0  0  0  0  0  0  0
  1  2  1  0
  2  3  1  0
  2  4  2  0
  4  5  1  0
  5  6  1  0
  6  7  1  0
  7  8  1  1
  7  9  1  0
  9 10  2  0
 10 11  1  0
 11 12  2  0
 12 13  1  0
 12 14  1  0
 14 15  1  0
 14 16  2  0
 16  9  1  0
M  END
>  <identifier>  (186) 
CNP0176395.1

>  <canonical_smiles>  (186) 
CC(C)=CCC[C@@H](C)C1=CC=C(C)C(O)=C1

>  <standard_inchi>  (186) 
InChI=1S/C15H22O/c1-11(2)6-5-7-12(3)14-9-8-13(4)15(16)10-14/h6,8-10,12,16H,5,7H2,1-4H3/t12-/m1/s1

>  <standard_inchi_key>  (186) 
FKWGCEDRLNNZOZ-GFCCVEGCSA-N

>  <name>  (186) 
Xanthorrhizol

>  <iupac_name>  (186) 
5-[(1~{R})-1,5-dimethylhex-4-enyl]-2-methyl-phenol

>  <annotation_level>  (186) 
5

>  <total_atom_count>  (186) 
38

>  <heavy_atom_count>  (186) 
16

>  <molecular_weight>  (186) 
218.34

>  <exact_molecular_weight>  (186) 
218.16707

>  <molecular_formula>  (186) 
C15H22O

>  <alogp>  (186) 
4.55

>  <topological_polar_surface_area>  (186) 
20.23

>  <rotatable_bond_count>  (186) 
4

>  <hydrogen_bond_acceptors>  (186) 
1

>  <hydrogen_bond_donors>  (186) 
1

>  <hydrogen_bond_acceptors_lipinski>  (186) 
1

>  <hydrogen_bond_donors_lipinski>  (186) 
1

>  <lipinski_rule_of_five_violations>  (186) 
0

>  <aromatic_rings_count>  (186) 
1

>  <qed_drug_likeliness>  (186) 
0.73

>  <formal_charge>  (186) 
0

>  <fractioncsp3>  (186) 
0.47

>  <number_of_minimal_rings>  (186) 
1

>  <van_der_walls_volume>  (186) 
234.07

>  <contains_sugar>  (186) 
False

>  <contains_ring_sugars>  (186) 
False

>  <contains_linear_sugars>  (186) 
False

>  <murcko_framework>  (186) 
c1ccccc1

>  <np_likeness>  (186) 
1.42

>  <chemical_class>  (186) 
Prenol lipids

>  <chemical_sub_class>  (186) 
Sesquiterpenoids

>  <chemical_super_class>  (186) 
Lipids and lipid-like molecules

>  <direct_parent_classification>  (186) 
Sesquiterpenoids

>  <np_classifier_pathway>  (186) 
Terpenoids

>  <np_classifier_superclass>  (186) 
Sesquiterpenoids

>  <np_classifier_class>  (186) 
Bisabolane sesquiterpenoids

>  <np_classifier_is_glycoside>  (186) 
False

>  <organisms>  (186) 
Curcuma aromatica|Curcuma longa|Curcuma xanthorrhiza|Iostephane heterophylla|Valeriana jatamansi|Zingiber officinale

>  <collections>  (186) 
BIOFACQUIM|CMAUP (cCollective molecular activities of useful plants)|EMNPD|ETM (Ethiopian Traditional Medicine) DB|KNApSaCK|Latin America dataset|NPASS|NPEdia|Super Natural II|VietHerb

>  <dois>  (186) 
10.1021/np010076o|10.1080/10575630108041265

>  <synonyms>  (186) 
30199-26-9|Xanthorrizol|2-methyl-5-(2r)-6-methylhept-5-en-2-ylphenol|(R)-5-(1|5-Dimethyl-4-hexenyl)-o-cresol|1|3|5|10-Bisabolatetraen-2-ol|(R)-2-Methyl-5-(6-methylhept-5-en-2-yl)phenol|Phenol| 5-(1R)-1|5-dimethyl-4-hexenyl-2-methyl-|(-)-5-(1|5-Dimethyl-4-hexenyl)-2-methylphenol|(R)-(-)-Xanthorrhizol|o-Cresol| 5-(1|5-dimethyl-4-hexenyl)-| (-)-|EINECS 250-090-2|Phenol| 5-(1|5-dimethyl-4-hexenyl)-2-methyl-| (R)-|(-)-Xanthorrizol|CHEMBL460033|SCHEMBL14879579|DTXSID20184290|CHEBI:184290|BDBM50548726|HB4127|MFCD03453037|AKOS040740580|SMP1_000318|TS-07913|HY-112657|CS-0059020|NS00028876|EN300-6736093|5-(1R)-1|5-dimethylhex-4-enyl-2-methyl-phenol|5-(1R)-1|5-dimethyl-4-hexen-1-yl-2-methylphenol|Z1513804374

>  <cas>  (186) 
30199-26-9

$$$$

     RDKit          2D

 17 18  0  0  0  0  0  0  0  0999 V2000
    5.6186   -1.5936    0.0000 C   0  0  0  0  0  0  0  0  0  0  0  0
    4.2567   -0.9648    0.0000 C   0  0  0  0  0  0  0  0  0  0  0  0
    3.0313   -1.8298    0.0000 C   0  0  0  0  0  0  0  0  0  0  0  0
    1.6694   -1.2011    0.0000 C   0  0  0  0  0  0  0  0  0  0  0  0
    1.5330    0.2927    0.0000 C   0  0  0  0  0  0  0  0  0  0  0  0
    0.1711    0.9214    0.0000 C   0  0  0  0  0  0  0  0  0  0  0  0
    0.0347    2.4152    0.0000 C   0  0  0  0  0  0  0  0  0  0  0  0
   -1.0543    0.0564    0.0000 C   0  0  0  0  0  0  0  0  0  0  0  0
   -2.4162    0.6851    0.0000 C   0  0  0  0  0  0  0  0  0  0  0  0
   -3.6416   -0.1799    0.0000 C   0  0  0  0  0  0  0  0  0  0  0  0
   -4.2704   -1.5417    0.0000 O   0  0  0  0  0  0  0  0  0  0  0  0
   -5.1354   -0.3163    0.0000 C   0  0  0  0  0  0  0  0  0  0  0  0
   -6.4924   -0.9554    0.0000 C   0  0  0  0  0  0  0  0  0  0  0  0
   -5.5291    1.1311    0.0000 C   0  0  0  0  0  0  0  0  0  0  0  0
    2.7584    1.1577    0.0000 C   0  0  0  0  0  0  0  0  0  0  0  0
    4.1203    0.5290    0.0000 C   0  0  0  0  0  0  0  0  0  0  0  0
    5.3458    1.3940    0.0000 O   0  0  0  0  0  0  0  0  0  0  0  0
  1  2  1  0
  2  3  2  0
  3  4  1  0
  4  5  2  0
  5  6  1  0
  6  7  1  1
  6  8  1  0
  8  9  1  0
  9 10  1  0
 10 11  1  0
 11 12  1  0
 12 13  1  0
 12 14  1  0
  5 15  1  0
 15 16  2  0
 16 17  1  0
 16  2  1  0
 12 10  1  0
M  END
>  <identifier>  (187) 
CNP0122170.1

>  <canonical_smiles>  (187) 
CC1=CC=C([C@H](C)CCC2OC2(C)C)C=C1O

>  <standard_inchi>  (187) 
InChI=1S/C15H22O2/c1-10(6-8-14-15(3,4)17-14)12-7-5-11(2)13(16)9-12/h5,7,9-10,14,16H,6,8H2,1-4H3/t10-,14?/m1/s1

>  <standard_inchi_key>  (187) 
BQAQGBHVNVLESL-IAPIXIRKSA-N

>  <name>  (187) 
nan

>  <iupac_name>  (187) 
5-[(1~{R})-3-(3,3-dimethyloxiran-2-yl)-1-methyl-propyl]-2-methyl-phenol

>  <annotation_level>  (187) 
5

>  <total_atom_count>  (187) 
39

>  <heavy_atom_count>  (187) 
17

>  <molecular_weight>  (187) 
234.34

>  <exact_molecular_weight>  (187) 
234.16198

>  <molecular_formula>  (187) 
C15H22O2

>  <alogp>  (187) 
3.76

>  <topological_polar_surface_area>  (187) 
32.76

>  <rotatable_bond_count>  (187) 
4

>  <hydrogen_bond_acceptors>  (187) 
2

>  <hydrogen_bond_donors>  (187) 
1

>  <hydrogen_bond_acceptors_lipinski>  (187) 
2

>  <hydrogen_bond_donors_lipinski>  (187) 
1

>  <lipinski_rule_of_five_violations>  (187) 
0

>  <aromatic_rings_count>  (187) 
1

>  <qed_drug_likeliness>  (187) 
0.80

>  <formal_charge>  (187) 
0

>  <fractioncsp3>  (187) 
0.60

>  <number_of_minimal_rings>  (187) 
2

>  <van_der_walls_volume>  (187) 
241.90

>  <contains_sugar>  (187) 
False

>  <contains_ring_sugars>  (187) 
False

>  <contains_linear_sugars>  (187) 
False

>  <murcko_framework>  (187) 
O1CC1CCCc2ccccc2

>  <np_likeness>  (187) 
1.49

>  <chemical_class>  (187) 
Prenol lipids

>  <chemical_sub_class>  (187) 
Sesquiterpenoids

>  <chemical_super_class>  (187) 
Lipids and lipid-like molecules

>  <direct_parent_classification>  (187) 
Sesquiterpenoids

>  <np_classifier_pathway>  (187) 
Terpenoids

>  <np_classifier_superclass>  (187) 
Monoterpenoids

>  <np_classifier_class>  (187) 
nan

>  <np_classifier_is_glycoside>  (187) 
False

>  <organisms>  (187) 
Iostephane heterophylla

>  <collections>  (187) 
BIOFACQUIM|Latin America dataset

>  <dois>  (187) 
10.1080/10575630108041265

>  <synonyms>  (187) 
12 13-epoxy-xanthorrhizol

>  <cas>  (187) 
nan

$$$$

     RDKit          2D

 21 23  0  0  0  0  0  0  0  0999 V2000
   -5.1811   -0.4020    0.0000 C   0  0  0  0  0  0  0  0  0  0  0  0
   -3.8369   -1.0678    0.0000 O   0  0  0  0  0  0  0  0  0  0  0  0
   -2.5883   -0.2366    0.0000 C   0  0  0  0  0  0  0  0  0  0  0  0
   -2.6837    1.2603    0.0000 C   0  0  0  0  0  0  0  0  0  0  0  0
   -1.4351    2.0915    0.0000 C   0  0  0  0  0  0  0  0  0  0  0  0
   -1.5305    3.5884    0.0000 O   0  0  0  0  0  0  0  0  0  0  0  0
   -0.0909    1.4257    0.0000 C   0  0  0  0  0  0  0  0  0  0  0  0
    1.1577    2.2568    0.0000 C   0  0  0  0  0  0  0  0  0  0  0  0
    1.0623    3.7538    0.0000 O   0  0  0  0  0  0  0  0  0  0  0  0
    2.5019    1.5910    0.0000 C   0  0  0  0  0  0  0  0  0  0  0  0
    2.5974    0.0941    0.0000 C   0  0  0  0  0  0  0  0  0  0  0  0
    3.9415   -0.5717    0.0000 O   0  0  0  0  0  0  0  0  0  0  0  0
    5.1902    0.2594    0.0000 C   0  0  0  0  0  0  0  0  0  0  0  0
    1.3487   -0.7371    0.0000 C   0  0  0  0  0  0  0  0  0  0  0  0
    0.0045   -0.0713    0.0000 C   0  0  0  0  0  0  0  0  0  0  0  0
   -1.2441   -0.9024    0.0000 C   0  0  0  0  0  0  0  0  0  0  0  0
   -2.4928   -1.7336    0.0000 O   0  0  0  0  0  0  0  0  0  0  0  0
   -1.1487   -2.3994    0.0000 C   0  0  0  0  0  0  0  0  0  0  0  0
    0.1955   -3.0652    0.0000 O   0  0  0  0  0  0  0  0  0  0  0  0
    1.4442   -2.2340    0.0000 C   0  0  0  0  0  0  0  0  0  0  0  0
    2.7883   -2.8998    0.0000 O   0  0  0  0  0  0  0  0  0  0  0  0
  1  2  1  0
  2  3  1  0
  3  4  2  0
  4  5  1  0
  5  6  2  0
  5  7  1  0
  7  8  2  0
  8  9  1  0
  8 10  1  0
 10 11  2  0
 11 12  1  0
 12 13  1  0
 11 14  1  0
 14 15  2  0
 15 16  1  0
 16 17  1  1
 16 18  1  0
 18 19  1  0
 19 20  1  0
 20 21  2  0
 16  3  1  0
 15  7  1  0
 20 14  1  0
M  END
>  <identifier>  (188) 
CNP0323921.1

>  <canonical_smiles>  (188) 
COC1=CC(=O)C2=C(O)C=C(OC)C3=C2[C@]1(O)COC3=O

>  <standard_inchi>  (188) 
InChI=1S/C14H12O7/c1-19-8-3-6(15)10-7(16)4-9(20-2)14(18)5-21-13(17)11(8)12(10)14/h3-4,15,18H,5H2,1-2H3/t14-/m0/s1

>  <standard_inchi_key>  (188) 
PHWNDHXZDCXMCU-AWEZNQCLSA-N

>  <name>  (188) 
Preussochromone C

>  <iupac_name>  (188) 
(5~{S})-5,10-dihydroxy-6,12-dimethoxy-3-oxatricyclo[7.3.1.0^{5,13}]trideca-1(13),6,9,11-tetraene-2,8-dione

>  <annotation_level>  (188) 
5

>  <total_atom_count>  (188) 
33

>  <heavy_atom_count>  (188) 
21

>  <molecular_weight>  (188) 
292.24

>  <exact_molecular_weight>  (188) 
292.0583

>  <molecular_formula>  (188) 
C14H12O7

>  <alogp>  (188) 
0.49

>  <topological_polar_surface_area>  (188) 
102.29

>  <rotatable_bond_count>  (188) 
2

>  <hydrogen_bond_acceptors>  (188) 
7

>  <hydrogen_bond_donors>  (188) 
2

>  <hydrogen_bond_acceptors_lipinski>  (188) 
7

>  <hydrogen_bond_donors_lipinski>  (188) 
2

>  <lipinski_rule_of_five_violations>  (188) 
0

>  <aromatic_rings_count>  (188) 
1

>  <qed_drug_likeliness>  (188) 
0.76

>  <formal_charge>  (188) 
0

>  <fractioncsp3>  (188) 
0.29

>  <number_of_minimal_rings>  (188) 
3

>  <van_der_walls_volume>  (188) 
237.41

>  <contains_sugar>  (188) 
False

>  <contains_ring_sugars>  (188) 
False

>  <contains_linear_sugars>  (188) 
False

>  <murcko_framework>  (188) 
O1Cc2cccc3c2C(C=CC3)C1

>  <np_likeness>  (188) 
2.53

>  <chemical_class>  (188) 
Naphthalenes

>  <chemical_sub_class>  (188) 
Naphthalenes

>  <chemical_super_class>  (188) 
Benzenoids

>  <direct_parent_classification>  (188) 
Naphthalenes

>  <np_classifier_pathway>  (188) 
Polyketides

>  <np_classifier_superclass>  (188) 
Chromanes

>  <np_classifier_class>  (188) 
Chromones

>  <np_classifier_is_glycoside>  (188) 
False

>  <organisms>  (188) 
Bulbophyllum odoratissimum|Eriostemon buxifolius|Phycomyces blakesleeanus|Preussia africana|Preussia minimoides

>  <collections>  (188) 
BIOFACQUIM|EMNPD|Latin America dataset|NPASS|NPAtlas

>  <dois>  (188) 
10.1021/acs.jnatprod.6b00574|10.1021/np2009362

>  <synonyms>  (188) 
Preubetaochromone C|CHEMBL2012304|CHEBI:213490|(5S)-5|10-dihydroxy-6|12-dimethoxy-3-oxatricyclo7.3.1.05|13trideca-1(12)|6|9(13)|10-tetraene-2|8-dione|Preussochromone C

>  <cas>  (188) 
nan

$$$$

     RDKit          2D

 18 18  0  0  0  0  0  0  0  0999 V2000
    5.8999   -1.3934    0.0000 C   0  0  0  0  0  0  0  0  0  0  0  0
    4.5042   -0.8436    0.0000 C   0  0  0  0  0  0  0  0  0  0  0  0
    3.3303   -1.7774    0.0000 C   0  0  0  0  0  0  0  0  0  0  0  0
    1.9347   -1.2276    0.0000 C   0  0  0  0  0  0  0  0  0  0  0  0
    1.7130    0.2560    0.0000 C   0  0  0  0  0  0  0  0  0  0  0  0
    0.3174    0.8058    0.0000 C   0  0  0  0  0  0  0  0  0  0  0  0
    0.0958    2.2893    0.0000 C   0  0  0  0  0  0  0  0  0  0  0  0
   -0.8565   -0.1280    0.0000 C   0  0  0  0  0  0  0  0  0  0  0  0
   -2.2521    0.4218    0.0000 C   0  0  0  0  0  0  0  0  0  0  0  0
   -3.4261   -0.5119    0.0000 C   0  0  0  0  0  0  0  0  0  0  0  0
   -3.2044   -1.9954    0.0000 O   0  0  0  0  0  0  0  0  0  0  0  0
   -4.8217    0.0379    0.0000 C   0  0  0  0  0  0  0  0  0  0  0  0
   -4.2719    1.4335    0.0000 C   0  0  0  0  0  0  0  0  0  0  0  0
   -5.3715   -1.3577    0.0000 C   0  0  0  0  0  0  0  0  0  0  0  0
   -6.2173    0.5877    0.0000 O   0  0  0  0  0  0  0  0  0  0  0  0
    2.8870    1.1897    0.0000 C   0  0  0  0  0  0  0  0  0  0  0  0
    4.2826    0.6399    0.0000 C   0  0  0  0  0  0  0  0  0  0  0  0
    5.4565    1.5736    0.0000 O   0  0  0  0  0  0  0  0  0  0  0  0
  1  2  1  0
  2  3  2  0
  3  4  1  0
  4  5  2  0
  5  6  1  0
  6  7  1  1
  6  8  1  0
  8  9  1  0
  9 10  1  0
 10 11  1  0
 10 12  1  0
 12 13  1  0
 12 14  1  0
 12 15  1  0
  5 16  1  0
 16 17  2  0
 17 18  1  0
 17  2  1  0
M  END
>  <identifier>  (189) 
CNP0080333.1

>  <canonical_smiles>  (189) 
CC1=CC=C([C@H](C)CCC(O)C(C)(C)O)C=C1O

>  <standard_inchi>  (189) 
InChI=1S/C15H24O3/c1-10(6-8-14(17)15(3,4)18)12-7-5-11(2)13(16)9-12/h5,7,9-10,14,16-18H,6,8H2,1-4H3/t10-,14?/m1/s1

>  <standard_inchi_key>  (189) 
OBNVTTHRWSUAMB-IAPIXIRKSA-N

>  <name>  (189) 
nan

>  <iupac_name>  (189) 
(6~{R})-6-(3-hydroxy-4-methyl-phenyl)-2-methyl-heptane-2,3-diol

>  <annotation_level>  (189) 
5

>  <total_atom_count>  (189) 
42

>  <heavy_atom_count>  (189) 
18

>  <molecular_weight>  (189) 
252.35

>  <exact_molecular_weight>  (189) 
252.17254

>  <molecular_formula>  (189) 
C15H24O3

>  <alogp>  (189) 
2.72

>  <topological_polar_surface_area>  (189) 
60.69

>  <rotatable_bond_count>  (189) 
5

>  <hydrogen_bond_acceptors>  (189) 
3

>  <hydrogen_bond_donors>  (189) 
3

>  <hydrogen_bond_acceptors_lipinski>  (189) 
3

>  <hydrogen_bond_donors_lipinski>  (189) 
3

>  <lipinski_rule_of_five_violations>  (189) 
0

>  <aromatic_rings_count>  (189) 
1

>  <qed_drug_likeliness>  (189) 
0.75

>  <formal_charge>  (189) 
0

>  <fractioncsp3>  (189) 
0.60

>  <number_of_minimal_rings>  (189) 
1

>  <van_der_walls_volume>  (189) 
255.94

>  <contains_sugar>  (189) 
False

>  <contains_ring_sugars>  (189) 
False

>  <contains_linear_sugars>  (189) 
False

>  <murcko_framework>  (189) 
c1ccccc1

>  <np_likeness>  (189) 
1.37

>  <chemical_class>  (189) 
Prenol lipids

>  <chemical_sub_class>  (189) 
Sesquiterpenoids

>  <chemical_super_class>  (189) 
Lipids and lipid-like molecules

>  <direct_parent_classification>  (189) 
Sesquiterpenoids

>  <np_classifier_pathway>  (189) 
Terpenoids

>  <np_classifier_superclass>  (189) 
Sesquiterpenoids

>  <np_classifier_class>  (189) 
Bisabolane sesquiterpenoids

>  <np_classifier_is_glycoside>  (189) 
False

>  <organisms>  (189) 
Iostephane heterophylla

>  <collections>  (189) 
BIOFACQUIM|Latin America dataset

>  <dois>  (189) 
10.1080/10575630108041265

>  <synonyms>  (189) 
12 13-dihydro-12 13-dihydroxy-xanthorrizol

>  <cas>  (189) 
nan

$$$$

     RDKit          2D

 38 40  0  0  0  0  0  0  0  0999 V2000
    7.5663   -3.3096    0.0000 C   0  0  0  0  0  0  0  0  0  0  0  0
    6.7626   -2.0431    0.0000 C   0  0  0  0  0  0  0  0  0  0  0  0
    5.2639   -2.1059    0.0000 C   0  0  0  0  0  0  0  0  0  0  0  0
    4.4601   -0.8395    0.0000 C   0  0  0  0  0  0  0  0  0  0  0  0
    5.1551    0.4899    0.0000 C   0  0  0  0  0  0  0  0  0  0  0  0
    4.3513    1.7563    0.0000 C   0  0  0  0  0  0  0  0  0  0  0  0
    5.0462    3.0856    0.0000 C   0  0  0  0  0  0  0  0  0  0  0  0
    2.8526    1.6935    0.0000 C   0  0  0  0  0  0  0  0  0  0  0  0
    2.0489    2.9600    0.0000 C   0  0  0  0  0  0  0  0  0  0  0  0
    0.5502    2.8971    0.0000 C   0  0  0  0  0  0  0  0  0  0  0  0
   -0.1447    1.5678    0.0000 O   0  0  0  0  0  0  0  0  0  0  0  0
   -1.6434    1.5050    0.0000 C   0  0  0  0  0  0  0  0  0  0  0  0
   -2.4472    2.7715    0.0000 O   0  0  0  0  0  0  0  0  0  0  0  0
   -3.9459    2.7086    0.0000 C   0  0  0  0  0  0  0  0  0  0  0  0
   -4.7496    3.9751    0.0000 C   0  0  0  0  0  0  0  0  0  0  0  0
   -6.2483    3.9123    0.0000 O   0  0  0  0  0  0  0  0  0  0  0  0
   -4.6408    1.3793    0.0000 C   0  0  0  0  0  0  0  0  0  0  0  0
   -6.1395    1.3165    0.0000 O   0  0  0  0  0  0  0  0  0  0  0  0
   -3.8370    0.1129    0.0000 C   0  0  0  0  0  0  0  0  0  0  0  0
   -4.5320   -1.2165    0.0000 O   0  0  0  0  0  0  0  0  0  0  0  0
   -2.3384    0.1757    0.0000 C   0  0  0  0  0  0  0  0  0  0  0  0
   -1.5346   -1.0908    0.0000 O   0  0  0  0  0  0  0  0  0  0  0  0
   -2.2295   -2.4201    0.0000 C   0  0  0  0  0  0  0  0  0  0  0  0
   -3.7282   -2.4829    0.0000 O   0  0  0  0  0  0  0  0  0  0  0  0
   -4.4231   -3.8123    0.0000 C   0  0  0  0  0  0  0  0  0  0  0  0
   -3.6194   -5.0787    0.0000 C   0  0  0  0  0  0  0  0  0  0  0  0
   -4.3143   -6.4081    0.0000 O   0  0  0  0  0  0  0  0  0  0  0  0
   -2.1207   -5.0159    0.0000 C   0  0  0  0  0  0  0  0  0  0  0  0
   -1.3169   -6.2824    0.0000 O   0  0  0  0  0  0  0  0  0  0  0  0
   -1.4258   -3.6866    0.0000 C   0  0  0  0  0  0  0  0  0  0  0  0
    0.0729   -3.6238    0.0000 O   0  0  0  0  0  0  0  0  0  0  0  0
   -0.2536    4.1636    0.0000 C   0  0  0  0  0  0  0  0  0  0  0  0
    1.0129    4.9674    0.0000 C   0  0  0  0  0  0  0  0  0  0  0  0
   -1.5201    3.3599    0.0000 C   0  0  0  0  0  0  0  0  0  0  0  0
   -1.0573    5.4301    0.0000 O   0  0  0  0  0  0  0  0  0  0  0  0
    6.6537    0.5527    0.0000 C   0  0  0  0  0  0  0  0  0  0  0  0
    7.4575   -0.7138    0.0000 C   0  0  0  0  0  0  0  0  0  0  0  0
    8.9562   -0.6510    0.0000 O   0  0  0  0  0  0  0  0  0  0  0  0
  1  2  1  0
  2  3  2  0
  3  4  1  0
  4  5  2  0
  5  6  1  0
  6  7  1  6
  6  8  1  0
  8  9  1  0
 10  9  1  1
 10 11  1  0
 12 11  1  1
 12 13  1  0
 13 14  1  0
 14 15  1  1
 15 16  1  0
 14 17  1  0
 17 18  1  6
 17 19  1  0
 19 20  1  1
 19 21  1  0
 21 22  1  6
 23 22  1  6
 23 24  1  0
 24 25  1  0
 25 26  1  0
 26 27  1  6
 26 28  1  0
 28 29  1  6
 28 30  1  0
 30 31  1  1
 10 32  1  0
 32 33  1  0
 32 34  1  0
 32 35  1  0
  5 36  1  0
 36 37  2  0
 37 38  1  0
 37  2  1  0
 21 12  1  0
 30 23  1  0
M  END
>  <identifier>  (190) 
CNP0436828.1

>  <canonical_smiles>  (190) 
CC1=CC=C([C@@H](C)CC[C@@H](O[C@@H]2O[C@H](CO)[C@@H](O)[C@H](O)[C@H]2O[C@H]2OC[C@@H](O)[C@@H](O)[C@@H]2O)C(C)(C)O)C=C1O

>  <standard_inchi>  (190) 
InChI=1S/C26H42O12/c1-12(14-7-5-13(2)15(28)9-14)6-8-18(26(3,4)34)37-25-23(21(32)20(31)17(10-27)36-25)38-24-22(33)19(30)16(29)11-35-24/h5,7,9,12,16-25,27-34H,6,8,10-11H2,1-4H3/t12-,16+,17+,18+,19+,20+,21-,22-,23+,24+,25-/m0/s1

>  <standard_inchi_key>  (190) 
IUDQWTDUWJZBKB-XWQPWXSJSA-N

>  <name>  (190) 
nan

>  <iupac_name>  (190) 
(2~{R},3~{S},4~{R},5~{R})-2-[(2~{S},3~{R},4~{S},5~{S},6~{R})-4,5-dihydroxy-6-(hydroxymethyl)-2-[(1~{R},4~{S})-1-(1-hydroxy-1-methyl-ethyl)-4-(3-hydroxy-4-methyl-phenyl)pentoxy]tetrahydropyran-3-yl]oxytetrahydropyran-3,4,5-triol

>  <annotation_level>  (190) 
5

>  <total_atom_count>  (190) 
80

>  <heavy_atom_count>  (190) 
38

>  <molecular_weight>  (190) 
546.61

>  <exact_molecular_weight>  (190) 
546.26763

>  <molecular_formula>  (190) 
C26H42O12

>  <alogp>  (190) 
-1.00

>  <topological_polar_surface_area>  (190) 
198.76

>  <rotatable_bond_count>  (190) 
10

>  <hydrogen_bond_acceptors>  (190) 
12

>  <hydrogen_bond_donors>  (190) 
8

>  <hydrogen_bond_acceptors_lipinski>  (190) 
12

>  <hydrogen_bond_donors_lipinski>  (190) 
8

>  <lipinski_rule_of_five_violations>  (190) 
3

>  <aromatic_rings_count>  (190) 
1

>  <qed_drug_likeliness>  (190) 
0.18

>  <formal_charge>  (190) 
0

>  <fractioncsp3>  (190) 
0.77

>  <number_of_minimal_rings>  (190) 
3

>  <van_der_walls_volume>  (190) 
494.02

>  <contains_sugar>  (190) 
True

>  <contains_ring_sugars>  (190) 
True

>  <contains_linear_sugars>  (190) 
False

>  <murcko_framework>  (190) 
O1CCCCC1OC2CCCOC2OCCCCc3ccccc3

>  <np_likeness>  (190) 
1.81

>  <chemical_class>  (190) 
Prenol lipids

>  <chemical_sub_class>  (190) 
Terpene glycosides

>  <chemical_super_class>  (190) 
Lipids and lipid-like molecules

>  <direct_parent_classification>  (190) 
Terpene glycosides

>  <np_classifier_pathway>  (190) 
Terpenoids

>  <np_classifier_superclass>  (190) 
Sesquiterpenoids

>  <np_classifier_class>  (190) 
Bisabolane sesquiterpenoids

>  <np_classifier_is_glycoside>  (190) 
True

>  <organisms>  (190) 
Iostephane heterophylla

>  <collections>  (190) 
BIOFACQUIM|Latin America dataset

>  <dois>  (190) 
10.1080/10575630108041265

>  <synonyms>  (190) 
1-O-12-O-(12S)-dihydro-12 13-dihydroxy-xanthorrizol-b-L-arabinopyranosyl-(1->2)-b-D-Dglucopyranoside

>  <cas>  (190) 
nan

$$$$

     RDKit          2D

 41 47  0  0  0  0  0  0  0  0999 V2000
   -8.4704    2.2029    0.0000 O   0  0  0  0  0  0  0  0  0  0  0  0
   -7.1770    1.4432    0.0000 C   0  0  0  0  0  0  0  0  0  0  0  0
   -5.8724    2.1835    0.0000 C   0  0  0  0  0  0  0  0  0  0  0  0
   -4.5790    1.4238    0.0000 C   0  0  0  0  0  0  0  0  0  0  0  0
   -4.5901   -0.0761    0.0000 C   0  0  0  0  0  0  0  0  0  0  0  0
   -3.2967   -0.8358    0.0000 C   0  0  0  0  0  0  0  0  0  0  0  0
   -3.3079   -2.3357    0.0000 O   0  0  0  0  0  0  0  0  0  0  0  0
   -2.0145   -3.0954    0.0000 C   0  0  0  0  0  0  0  0  0  0  0  0
   -2.0257   -4.5954    0.0000 C   0  0  0  0  0  0  0  0  0  0  0  0
   -0.7323   -5.3550    0.0000 C   0  0  0  0  0  0  0  0  0  0  0  0
   -0.7434   -6.8550    0.0000 O   0  0  0  0  0  0  0  0  0  0  0  0
    0.5723   -4.6147    0.0000 C   0  0  0  0  0  0  0  0  0  0  0  0
    0.5835   -3.1148    0.0000 C   0  0  0  0  0  0  0  0  0  0  0  0
    1.8881   -2.3745    0.0000 O   0  0  0  0  0  0  0  0  0  0  0  0
   -0.7099   -2.3551    0.0000 C   0  0  0  0  0  0  0  0  0  0  0  0
   -0.6987   -0.8551    0.0000 C   0  0  0  0  0  0  0  0  0  0  0  0
   -0.6876    0.6448    0.0000 C   0  0  0  0  0  0  0  0  0  0  0  0
   -1.9810    1.4045    0.0000 C   0  0  0  0  0  0  0  0  0  0  0  0
   -1.9698    2.9044    0.0000 C   0  0  0  0  0  0  0  0  0  0  0  0
   -0.6652    3.6447    0.0000 C   0  0  0  0  0  0  0  0  0  0  0  0
   -0.6540    5.1447    0.0000 O   0  0  0  0  0  0  0  0  0  0  0  0
    0.6282    2.8851    0.0000 C   0  0  0  0  0  0  0  0  0  0  0  0
    0.6170    1.3851    0.0000 C   0  0  0  0  0  0  0  0  0  0  0  0
    1.9105    0.6255    0.0000 O   0  0  0  0  0  0  0  0  0  0  0  0
    3.2150    1.3657    0.0000 C   0  0  0  0  0  0  0  0  0  0  0  0
    4.5085    0.6061    0.0000 C   0  0  0  0  0  0  0  0  0  0  0  0
    4.4973   -0.8939    0.0000 C   0  0  0  0  0  0  0  0  0  0  0  0
    5.7907   -1.6535    0.0000 C   0  0  0  0  0  0  0  0  0  0  0  0
    7.0953   -0.9132    0.0000 C   0  0  0  0  0  0  0  0  0  0  0  0
    8.3887   -1.6729    0.0000 O   0  0  0  0  0  0  0  0  0  0  0  0
    7.1065    0.5867    0.0000 C   0  0  0  0  0  0  0  0  0  0  0  0
    8.4111    1.3270    0.0000 O   0  0  0  0  0  0  0  0  0  0  0  0
    5.8130    1.3464    0.0000 C   0  0  0  0  0  0  0  0  0  0  0  0
    3.2262    2.8657    0.0000 C   0  0  0  0  0  0  0  0  0  0  0  0
    4.5308    3.6060    0.0000 O   0  0  0  0  0  0  0  0  0  0  0  0
    1.9328    3.6254    0.0000 C   0  0  0  0  0  0  0  0  0  0  0  0
   -3.2856    0.6642    0.0000 O   0  0  0  0  0  0  0  0  0  0  0  0
   -1.9921   -0.0955    0.0000 C   0  0  0  0  0  0  0  0  0  0  0  0
   -2.1793    0.6794    0.0000 O   0  0  0  0  0  0  0  0  0  0  0  0
   -5.8947   -0.8164    0.0000 C   0  0  0  0  0  0  0  0  0  0  0  0
   -7.1882   -0.0568    0.0000 C   0  0  0  0  0  0  0  0  0  0  0  0
  1  2  1  0
  2  3  2  0
  3  4  1  0
  4  5  2  0
  6  5  1  6
  6  7  1  0
  7  8  1  0
  8  9  2  0
  9 10  1  0
 10 11  1  0
 10 12  2  0
 12 13  1  0
 13 14  1  0
 13 15  2  0
 16 15  1  1
 16 17  1  0
 17 18  2  0
 18 19  1  0
 19 20  2  0
 20 21  1  0
 20 22  1  0
 22 23  2  0
 23 24  1  0
 24 25  1  0
 25 26  1  1
 26 27  2  0
 27 28  1  0
 28 29  2  0
 29 30  1  0
 29 31  1  0
 31 32  1  0
 31 33  2  0
 25 34  1  0
 34 35  1  6
 34 36  1  0
 18 37  1  0
 16 38  1  0
 38 39  1  6
  5 40  1  0
 40 41  2  0
 41  2  1  0
 37  6  1  0
 38  6  1  0
 15  8  1  0
 23 17  1  0
 33 26  1  0
 36 22  1  0
M  END
>  <identifier>  (191) 
CNP0317207.1

>  <canonical_smiles>  (191) 
OC1=CC=C([C@]23OC4=CC(O)=CC(O)=C4[C@H](C4=C(C=C(O)C5=C4O[C@H](C4=CC=C(O)C(O)=C4)[C@@H](O)C5)O2)[C@H]3O)C=C1

>  <standard_inchi>  (191) 
InChI=1S/C30H24O11/c31-14-4-2-13(3-5-14)30-29(38)26(24-20(36)8-15(32)9-22(24)40-30)25-23(41-30)11-18(34)16-10-21(37)27(39-28(16)25)12-1-6-17(33)19(35)7-12/h1-9,11,21,26-27,29,31-38H,10H2/t21-,26+,27+,29+,30-/m0/s1

>  <standard_inchi_key>  (191) 
MXKKFADFYXJREN-TXZJYACMSA-N

>  <name>  (191) 
nan

>  <iupac_name>  (191) 
(1~{R},5~{R},6~{S},13~{S},21~{R})-5-(3,4-dihydroxyphenyl)-13-(4-hydroxyphenyl)-4,12,14-trioxapentacyclo[11.7.1.0^{2,11}.0^{3,8}.0^{15,20}]henicosa-2(11),3(8),9,15,17,19-hexaene-6,9,17,19,21-pentol

>  <annotation_level>  (191) 
5

>  <total_atom_count>  (191) 
65

>  <heavy_atom_count>  (191) 
41

>  <molecular_weight>  (191) 
560.51

>  <exact_molecular_weight>  (191) 
560.13186

>  <molecular_formula>  (191) 
C30H24O11

>  <alogp>  (191) 
3.09

>  <topological_polar_surface_area>  (191) 
189.53

>  <rotatable_bond_count>  (191) 
2

>  <hydrogen_bond_acceptors>  (191) 
11

>  <hydrogen_bond_donors>  (191) 
8

>  <hydrogen_bond_acceptors_lipinski>  (191) 
11

>  <hydrogen_bond_donors_lipinski>  (191) 
8

>  <lipinski_rule_of_five_violations>  (191) 
3

>  <aromatic_rings_count>  (191) 
4

>  <qed_drug_likeliness>  (191) 
0.17

>  <formal_charge>  (191) 
0

>  <fractioncsp3>  (191) 
0.20

>  <number_of_minimal_rings>  (191) 
7

>  <van_der_walls_volume>  (191) 
457.50

>  <contains_sugar>  (191) 
False

>  <contains_ring_sugars>  (191) 
False

>  <contains_linear_sugars>  (191) 
False

>  <murcko_framework>  (191) 
O1c2c(ccc3OC4(Oc5ccccc5C(c32)C4)c6ccccc6)CCC1c7ccccc7

>  <np_likeness>  (191) 
2.19

>  <chemical_class>  (191) 
Flavonoids

>  <chemical_sub_class>  (191) 
Biflavonoids and polyflavonoids

>  <chemical_super_class>  (191) 
Phenylpropanoids and polyketides

>  <direct_parent_classification>  (191) 
Biflavonoids and polyflavonoids

>  <np_classifier_pathway>  (191) 
Shikimates and Phenylpropanoids

>  <np_classifier_superclass>  (191) 
Flavonoids

>  <np_classifier_class>  (191) 
Proanthocyanins

>  <np_classifier_is_glycoside>  (191) 
False

>  <organisms>  (191) 
Geranium niveum

>  <collections>  (191) 
BIOFACQUIM|Latin America dataset

>  <dois>  (191) 
10.1021/jf0483725

>  <synonyms>  (191) 
Geranin A

>  <cas>  (191) 
nan

$$$$

     RDKit          2D

 60 70  0  0  0  0  0  0  0  0999 V2000
   -7.4672   -6.6729    0.0000 O   0  0  0  0  0  0  0  0  0  0  0  0
   -7.2441   -5.1896    0.0000 C   0  0  0  0  0  0  0  0  0  0  0  0
   -8.4171   -4.2547    0.0000 C   0  0  0  0  0  0  0  0  0  0  0  0
   -8.1940   -2.7714    0.0000 C   0  0  0  0  0  0  0  0  0  0  0  0
   -6.7979   -2.2229    0.0000 C   0  0  0  0  0  0  0  0  0  0  0  0
   -6.5748   -0.7396    0.0000 C   0  0  0  0  0  0  0  0  0  0  0  0
   -5.1787   -0.1912    0.0000 O   0  0  0  0  0  0  0  0  0  0  0  0
   -4.9556    1.2922    0.0000 C   0  0  0  0  0  0  0  0  0  0  0  0
   -6.1286    2.2270    0.0000 C   0  0  0  0  0  0  0  0  0  0  0  0
   -7.5248    1.6785    0.0000 C   0  0  0  0  0  0  0  0  0  0  0  0
   -7.7479    0.1952    0.0000 C   0  0  0  0  0  0  0  0  0  0  0  0
   -9.1440   -0.3532    0.0000 O   0  0  0  0  0  0  0  0  0  0  0  0
   -5.9056    3.7103    0.0000 C   0  0  0  0  0  0  0  0  0  0  0  0
   -7.0786    4.6452    0.0000 O   0  0  0  0  0  0  0  0  0  0  0  0
   -4.5094    4.2588    0.0000 C   0  0  0  0  0  0  0  0  0  0  0  0
   -3.3364    3.3239    0.0000 C   0  0  0  0  0  0  0  0  0  0  0  0
   -3.5595    1.8406    0.0000 C   0  0  0  0  0  0  0  0  0  0  0  0
   -2.3864    0.9058    0.0000 C   0  0  0  0  0  0  0  0  0  0  0  0
   -1.2134   -0.0291    0.0000 C   0  0  0  0  0  0  0  0  0  0  0  0
   -1.4364   -1.5124    0.0000 C   0  0  0  0  0  0  0  0  0  0  0  0
   -2.8326   -2.0609    0.0000 O   0  0  0  0  0  0  0  0  0  0  0  0
   -0.2634   -2.4473    0.0000 C   0  0  0  0  0  0  0  0  0  0  0  0
    1.1327   -1.8988    0.0000 C   0  0  0  0  0  0  0  0  0  0  0  0
    2.3058   -2.8337    0.0000 O   0  0  0  0  0  0  0  0  0  0  0  0
    3.7019   -2.2852    0.0000 C   0  0  0  0  0  0  0  0  0  0  0  0
    4.8750   -3.2201    0.0000 C   0  0  0  0  0  0  0  0  0  0  0  0
    4.6519   -4.7034    0.0000 C   0  0  0  0  0  0  0  0  0  0  0  0
    5.8249   -5.6382    0.0000 C   0  0  0  0  0  0  0  0  0  0  0  0
    7.2211   -5.0898    0.0000 C   0  0  0  0  0  0  0  0  0  0  0  0
    8.3941   -6.0246    0.0000 O   0  0  0  0  0  0  0  0  0  0  0  0
    7.4441   -3.6065    0.0000 C   0  0  0  0  0  0  0  0  0  0  0  0
    6.2711   -2.6716    0.0000 C   0  0  0  0  0  0  0  0  0  0  0  0
    5.0981   -1.7367    0.0000 O   0  0  0  0  0  0  0  0  0  0  0  0
    5.3211   -0.2534    0.0000 C   0  0  0  0  0  0  0  0  0  0  0  0
    6.7173    0.2950    0.0000 C   0  0  0  0  0  0  0  0  0  0  0  0
    6.9404    1.7784    0.0000 C   0  0  0  0  0  0  0  0  0  0  0  0
    8.3365    2.3268    0.0000 O   0  0  0  0  0  0  0  0  0  0  0  0
    5.7673    2.7132    0.0000 C   0  0  0  0  0  0  0  0  0  0  0  0
    4.3712    2.1648    0.0000 C   0  0  0  0  0  0  0  0  0  0  0  0
    3.8865    2.7977    0.0000 O   0  0  0  0  0  0  0  0  0  0  0  0
    4.1481    0.6814    0.0000 C   0  0  0  0  0  0  0  0  0  0  0  0
    2.7520    0.1330    0.0000 C   0  0  0  0  0  0  0  0  0  0  0  0
    1.3558   -0.4155    0.0000 C   0  0  0  0  0  0  0  0  0  0  0  0
    0.1828    0.5194    0.0000 C   0  0  0  0  0  0  0  0  0  0  0  0
    0.4059    2.0027    0.0000 O   0  0  0  0  0  0  0  0  0  0  0  0
   -0.7672    2.9375    0.0000 C   0  0  0  0  0  0  0  0  0  0  0  0
    0.6289    3.4860    0.0000 C   0  0  0  0  0  0  0  0  0  0  0  0
    1.8020    2.5511    0.0000 C   0  0  0  0  0  0  0  0  0  0  0  0
    3.1981    3.0996    0.0000 C   0  0  0  0  0  0  0  0  0  0  0  0
    3.4212    4.5829    0.0000 C   0  0  0  0  0  0  0  0  0  0  0  0
    4.8173    5.1314    0.0000 O   0  0  0  0  0  0  0  0  0  0  0  0
    2.2482    5.5178    0.0000 C   0  0  0  0  0  0  0  0  0  0  0  0
    0.8520    4.9693    0.0000 C   0  0  0  0  0  0  0  0  0  0  0  0
   -1.9402    3.8724    0.0000 O   0  0  0  0  0  0  0  0  0  0  0  0
   -0.9903    1.4542    0.0000 C   0  0  0  0  0  0  0  0  0  0  0  0
   -0.0783    0.2633    0.0000 O   0  0  0  0  0  0  0  0  0  0  0  0
    3.9250   -0.8019    0.0000 C   0  0  0  0  0  0  0  0  0  0  0  0
    5.1469    0.0681    0.0000 O   0  0  0  0  0  0  0  0  0  0  0  0
   -5.6248   -3.1578    0.0000 C   0  0  0  0  0  0  0  0  0  0  0  0
   -5.8479   -4.6411    0.0000 C   0  0  0  0  0  0  0  0  0  0  0  0
  1  2  1  0
  2  3  2  0
  3  4  1  0
  4  5  2  0
  6  5  1  6
  6  7  1  0
  7  8  1  0
  8  9  2  0
  9 10  1  0
 10 11  1  0
 11 12  1  1
  9 13  1  0
 13 14  1  0
 13 15  2  0
 15 16  1  0
 16 17  2  0
 18 17  1  6
 18 19  1  0
 19 20  2  0
 20 21  1  0
 20 22  1  0
 22 23  2  0
 23 24  1  0
 24 25  1  0
 25 26  1  6
 26 27  2  0
 27 28  1  0
 28 29  2  0
 29 30  1  0
 29 31  1  0
 31 32  2  0
 25 33  1  0
 33 34  1  0
 34 35  2  0
 35 36  1  0
 36 37  1  0
 36 38  2  0
 38 39  1  0
 39 40  1  0
 39 41  2  0
 42 41  1  1
 42 43  1  0
 43 44  2  0
 44 45  1  0
 45 46  1  0
 46 47  1  1
 47 48  2  0
 48 49  1  0
 49 50  2  0
 50 51  1  0
 50 52  1  0
 52 53  2  0
 46 54  1  0
 46 55  1  0
 55 56  1  1
 42 57  1  0
 57 58  1  1
  5 59  1  0
 59 60  2  0
 60  2  1  0
 11  6  1  0
 54 16  1  0
 17  8  1  0
 55 18  1  0
 44 19  1  0
 53 47  1  0
 43 23  1  0
 57 25  1  0
 32 26  1  0
 41 34  1  0
M  END
>  <identifier>  (192) 
CNP0329359.1

>  <canonical_smiles>  (192) 
OC1=CC=C([C@H]2OC3=C(C[C@@H]2O)C(O)=CC2=C3[C@H]3C4=C(O)C=C5O[C@]6(C7=CC=C(O)C=C7)OC7=CC(O)=CC(O)=C7[C@H](C5=C4O[C@@](C4=CC=C(O)C=C4)(O2)[C@H]3O)[C@H]6O)C=C1

>  <standard_inchi>  (192) 
InChI=1S/C45H34O15/c46-21-7-1-18(2-8-21)39-29(53)15-25-26(50)16-31-35(40(25)56-39)38-34-28(52)17-32-36(41(34)60-45(59-31,43(38)55)20-5-11-23(48)12-6-20)37-33-27(51)13-24(49)14-30(33)57-44(58-32,42(37)54)19-3-9-22(47)10-4-19/h1-14,16-17,29,37-39,42-43,46-55H,15H2/t29-,37+,38+,39+,42+,43-,44-,45+/m0/s1

>  <standard_inchi_key>  (192) 
MMBACJOZVSORQJ-KTJIKPCYSA-N

>  <name>  (192) 
nan

>  <iupac_name>  (192) 
(1~{R},7~{S},15~{R},19~{R},26~{S},27~{R},31~{S},32~{R})-7,19,27-tris(4-hydroxyphenyl)-6,8,18,20,28-pentaoxaoctacyclo[17.11.1.1^{7,15}.0^{2,17}.0^{5,16}.0^{9,14}.0^{21,30}.0^{24,29}]dotriaconta-2,4,9,11,13,16,21(30),22,24(29)-nonaene-3,11,13,23,26,31,32-heptol

>  <annotation_level>  (192) 
5

>  <total_atom_count>  (192) 
94

>  <heavy_atom_count>  (192) 
60

>  <molecular_weight>  (192) 
814.75

>  <exact_molecular_weight>  (192) 
814.18977

>  <molecular_formula>  (192) 
C45H34O15

>  <alogp>  (192) 
4.92

>  <topological_polar_surface_area>  (192) 
248.45

>  <rotatable_bond_count>  (192) 
3

>  <hydrogen_bond_acceptors>  (192) 
15

>  <hydrogen_bond_donors>  (192) 
10

>  <hydrogen_bond_acceptors_lipinski>  (192) 
15

>  <hydrogen_bond_donors_lipinski>  (192) 
10

>  <lipinski_rule_of_five_violations>  (192) 
3

>  <aromatic_rings_count>  (192) 
6

>  <qed_drug_likeliness>  (192) 
0.11

>  <formal_charge>  (192) 
0

>  <fractioncsp3>  (192) 
0.20

>  <number_of_minimal_rings>  (192) 
11

>  <van_der_walls_volume>  (192) 
660.38

>  <contains_sugar>  (192) 
False

>  <contains_ring_sugars>  (192) 
False

>  <contains_linear_sugars>  (192) 
False

>  <murcko_framework>  (192) 
O1c2c(ccc3OC4(Oc5c(ccc6OC7(Oc8ccccc8C(c65)C7)c9ccccc9)C(c32)C4)c%10ccccc%10)CCC1c%11ccccc%11

>  <np_likeness>  (192) 
1.42

>  <chemical_class>  (192) 
Flavonoids

>  <chemical_sub_class>  (192) 
Biflavonoids and polyflavonoids

>  <chemical_super_class>  (192) 
Phenylpropanoids and polyketides

>  <direct_parent_classification>  (192) 
Biflavonoids and polyflavonoids

>  <np_classifier_pathway>  (192) 
Shikimates and Phenylpropanoids

>  <np_classifier_superclass>  (192) 
Flavonoids

>  <np_classifier_class>  (192) 
Proanthocyanins

>  <np_classifier_is_glycoside>  (192) 
False

>  <organisms>  (192) 
Geranium niveum

>  <collections>  (192) 
BIOFACQUIM|Latin America dataset

>  <dois>  (192) 
10.1021/jf0483725

>  <synonyms>  (192) 
Geranin D

>  <cas>  (192) 
nan

$$$$

     RDKit          2D

 49 48  0  0  0  0  0  0  0  0999 V2000
    8.2784    4.9992    0.0000 C   0  0  0  0  0  0  0  0  0  0  0  0
    6.8856    5.5560    0.0000 C   0  0  0  0  0  0  0  0  0  0  0  0
    5.7070    4.6281    0.0000 C   0  0  0  0  0  0  0  0  0  0  0  0
    4.3141    5.1848    0.0000 C   0  0  0  0  0  0  0  0  0  0  0  0
    3.1356    4.2569    0.0000 C   0  0  0  0  0  0  0  0  0  0  0  0
    1.7427    4.8136    0.0000 C   0  0  0  0  0  0  0  0  0  0  0  0
    3.3498    2.7723    0.0000 C   0  0  0  0  0  0  0  0  0  0  0  0
    4.7427    2.2156    0.0000 O   0  0  0  0  0  0  0  0  0  0  0  0
    4.9570    0.7310    0.0000 C   0  0  0  0  0  0  0  0  0  0  0  0
    3.7784   -0.1969    0.0000 O   0  0  0  0  0  0  0  0  0  0  0  0
    6.3499    0.1742    0.0000 C   0  0  0  0  0  0  0  0  0  0  0  0
    6.5641   -1.3104    0.0000 C   0  0  0  0  0  0  0  0  0  0  0  0
    7.9570   -1.8671    0.0000 C   0  0  0  0  0  0  0  0  0  0  0  0
    8.1713   -3.3517    0.0000 C   0  0  0  0  0  0  0  0  0  0  0  0
    6.9927   -4.2796    0.0000 O   0  0  0  0  0  0  0  0  0  0  0  0
    9.5642   -3.9084    0.0000 O   0  0  0  0  0  0  0  0  0  0  0  0
    5.3856   -2.2383    0.0000 C   0  0  0  0  0  0  0  0  0  0  0  0
    3.9927   -1.6815    0.0000 O   0  0  0  0  0  0  0  0  0  0  0  0
    5.5999   -3.7229    0.0000 O   0  0  0  0  0  0  0  0  0  0  0  0
    2.1713    1.8444    0.0000 C   0  0  0  0  0  0  0  0  0  0  0  0
    2.3856    0.3598    0.0000 O   0  0  0  0  0  0  0  0  0  0  0  0
    1.2070   -0.5681    0.0000 C   0  0  0  0  0  0  0  0  0  0  0  0
   -0.1859   -0.0114    0.0000 O   0  0  0  0  0  0  0  0  0  0  0  0
    1.4213   -2.0527    0.0000 C   0  0  0  0  0  0  0  0  0  0  0  0
    0.2427   -2.9806    0.0000 C   0  0  0  0  0  0  0  0  0  0  0  0
    0.4570   -4.4652    0.0000 C   0  0  0  0  0  0  0  0  0  0  0  0
   -0.7216   -5.3931    0.0000 C   0  0  0  0  0  0  0  0  0  0  0  0
   -2.1144   -4.8364    0.0000 O   0  0  0  0  0  0  0  0  0  0  0  0
   -0.5073   -6.8777    0.0000 O   0  0  0  0  0  0  0  0  0  0  0  0
   -1.1501   -2.4239    0.0000 C   0  0  0  0  0  0  0  0  0  0  0  0
   -1.3644   -0.9393    0.0000 O   0  0  0  0  0  0  0  0  0  0  0  0
   -2.3287   -3.3518    0.0000 O   0  0  0  0  0  0  0  0  0  0  0  0
    0.7784    2.4011    0.0000 C   0  0  0  0  0  0  0  0  0  0  0  0
    0.5641    3.8858    0.0000 C   0  0  0  0  0  0  0  0  0  0  0  0
   -0.4002    1.4733    0.0000 C   0  0  0  0  0  0  0  0  0  0  0  0
   -1.7930    2.0300    0.0000 C   0  0  0  0  0  0  0  0  0  0  0  0
   -2.0073    3.5146    0.0000 O   0  0  0  0  0  0  0  0  0  0  0  0
   -2.9716    1.1021    0.0000 C   0  0  0  0  0  0  0  0  0  0  0  0
   -4.3644    1.6588    0.0000 C   0  0  0  0  0  0  0  0  0  0  0  0
   -5.5430    0.7309    0.0000 C   0  0  0  0  0  0  0  0  0  0  0  0
   -6.9359    1.2877    0.0000 C   0  0  0  0  0  0  0  0  0  0  0  0
   -8.1144    0.3598    0.0000 C   0  0  0  0  0  0  0  0  0  0  0  0
   -7.9001   -1.1248    0.0000 O   0  0  0  0  0  0  0  0  0  0  0  0
   -9.5073    0.9165    0.0000 C   0  0  0  0  0  0  0  0  0  0  0  0
  -10.6859   -0.0114    0.0000 C   0  0  0  0  0  0  0  0  0  0  0  0
  -10.4716   -1.4960    0.0000 O   0  0  0  0  0  0  0  0  0  0  0  0
  -12.0787    0.5453    0.0000 C   0  0  0  0  0  0  0  0  0  0  0  0
  -13.2573   -0.3826    0.0000 C   0  0  0  0  0  0  0  0  0  0  0  0
  -12.2930    2.0299    0.0000 N   0  0  0  0  0  0  0  0  0  0  0  0
  1  2  1  0
  2  3  1  0
  3  4  1  0
  4  5  1  0
  5  6  1  6
  5  7  1  0
  7  8  1  1
  8  9  1  0
  9 10  2  0
  9 11  1  0
 12 11  1  6
 12 13  1  0
 13 14  1  0
 14 15  2  0
 14 16  1  0
 12 17  1  0
 17 18  2  0
 17 19  1  0
  7 20  1  0
 20 21  1  1
 21 22  1  0
 22 23  2  0
 22 24  1  0
 25 24  1  6
 25 26  1  0
 26 27  1  0
 27 28  2  0
 27 29  1  0
 25 30  1  0
 30 31  2  0
 30 32  1  0
 20 33  1  0
 33 34  1  6
 33 35  1  0
 35 36  1  0
 36 37  1  1
 36 38  1  0
 38 39  1  0
 39 40  1  0
 40 41  1  0
 41 42  1  0
 42 43  1  1
 42 44  1  0
 44 45  1  0
 45 46  1  6
 45 47  1  0
 47 48  1  6
 47 49  1  0
M  END
>  <identifier>  (193) 
CNP0080328.1

>  <canonical_smiles>  (193) 
CCCC[C@@H](C)[C@@H](OC(=O)C[C@H](CC(=O)O)C(=O)O)[C@@H](OC(=O)C[C@H](CC(=O)O)C(=O)O)[C@@H](C)C[C@H](O)CCCC[C@@H](O)C[C@H](O)[C@H](C)N

>  <standard_inchi>  (193) 
InChI=1S/C33H57NO15/c1-5-6-9-18(2)30(48-28(42)15-21(32(44)45)13-26(38)39)31(49-29(43)16-22(33(46)47)14-27(40)41)19(3)12-23(35)10-7-8-11-24(36)17-25(37)20(4)34/h18-25,30-31,35-37H,5-17,34H2,1-4H3,(H,38,39)(H,40,41)(H,44,45)(H,46,47)/t18-,19+,20+,21+,22+,23-,24-,25+,30-,31+/m1/s1

>  <standard_inchi_key>  (193) 
YXBNQTGKGCNTPV-VCEHAEOKSA-N

>  <name>  (193) 
FUMONISIN B1

>  <iupac_name>  (193) 
(2~{S})-2-[2-[(1~{R},2~{S},3~{S},5~{R},10~{R},12~{S},13~{S})-13-amino-2-[(3~{S})-3,4-dicarboxybutanoyl]oxy-5,10,12-trihydroxy-3-methyl-1-[(1~{R})-1-methylpentyl]tetradecoxy]-2-oxo-ethyl]butanedioic acid

>  <annotation_level>  (193) 
5

>  <total_atom_count>  (193) 
106

>  <heavy_atom_count>  (193) 
49

>  <molecular_weight>  (193) 
707.81

>  <exact_molecular_weight>  (193) 
707.37282

>  <molecular_formula>  (193) 
C33H57NO15

>  <alogp>  (193) 
2.17

>  <topological_polar_surface_area>  (193) 
288.51

>  <rotatable_bond_count>  (193) 
28

>  <hydrogen_bond_acceptors>  (193) 
12

>  <hydrogen_bond_donors>  (193) 
8

>  <hydrogen_bond_acceptors_lipinski>  (193) 
12

>  <hydrogen_bond_donors_lipinski>  (193) 
8

>  <lipinski_rule_of_five_violations>  (193) 
3

>  <aromatic_rings_count>  (193) 
0

>  <qed_drug_likeliness>  (193) 
0.04

>  <formal_charge>  (193) 
0

>  <fractioncsp3>  (193) 
0.82

>  <number_of_minimal_rings>  (193) 
0

>  <van_der_walls_volume>  (193) 
665.50

>  <contains_sugar>  (193) 
False

>  <contains_ring_sugars>  (193) 
False

>  <contains_linear_sugars>  (193) 
False

>  <murcko_framework>  (193) 
nan

>  <np_likeness>  (193) 
0.80

>  <chemical_class>  (193) 
Carboxylic acids and derivatives

>  <chemical_sub_class>  (193) 
Hexacarboxylic acids and derivatives

>  <chemical_super_class>  (193) 
Organic acids and derivatives

>  <direct_parent_classification>  (193) 
Hexacarboxylic acids and derivatives

>  <np_classifier_pathway>  (193) 
Polyketides

>  <np_classifier_superclass>  (193) 
Linear polyketides

>  <np_classifier_class>  (193) 
Open-chain polyketides

>  <np_classifier_is_glycoside>  (193) 
False

>  <organisms>  (193) 
Fusarium verticillioides

>  <collections>  (193) 
BIOFACQUIM|Latin America dataset

>  <dois>  (193) 
10.1021/jf0514827

>  <synonyms>  (193) 
CHEMBL1241092|Fumonisin B1

>  <cas>  (193) 
nan

$$$$

     RDKit          2D

 22 24  0  0  0  0  0  0  0  0999 V2000
   -6.2625   -1.2092    0.0000 C   0  0  0  0  0  0  0  0  0  0  0  0
   -4.9657   -1.9629    0.0000 O   0  0  0  0  0  0  0  0  0  0  0  0
   -3.6645   -1.2167    0.0000 C   0  0  0  0  0  0  0  0  0  0  0  0
   -3.6601    0.2833    0.0000 C   0  0  0  0  0  0  0  0  0  0  0  0
   -2.3589    1.0296    0.0000 C   0  0  0  0  0  0  0  0  0  0  0  0
   -2.3546    2.5295    0.0000 O   0  0  0  0  0  0  0  0  0  0  0  0
   -3.6514    3.2833    0.0000 C   0  0  0  0  0  0  0  0  0  0  0  0
   -1.0621    0.2758    0.0000 C   0  0  0  0  0  0  0  0  0  0  0  0
    0.2391    1.0220    0.0000 C   0  0  0  0  0  0  0  0  0  0  0  0
    0.2435    2.5220    0.0000 O   0  0  0  0  0  0  0  0  0  0  0  0
    1.5360    0.2683    0.0000 C   0  0  0  0  0  0  0  0  0  0  0  0
    2.8372    1.0145    0.0000 C   0  0  0  0  0  0  0  0  0  0  0  0
    2.8415    2.5145    0.0000 O   0  0  0  0  0  0  0  0  0  0  0  0
    4.1341    0.2608    0.0000 C   0  0  0  0  0  0  0  0  0  0  0  0
    5.4353    1.0070    0.0000 C   0  0  0  0  0  0  0  0  0  0  0  0
    4.1297   -1.2392    0.0000 C   0  0  0  0  0  0  0  0  0  0  0  0
    5.4266   -1.9930    0.0000 C   0  0  0  0  0  0  0  0  0  0  0  0
    2.8285   -1.9855    0.0000 O   0  0  0  0  0  0  0  0  0  0  0  0
    1.5317   -1.2317    0.0000 C   0  0  0  0  0  0  0  0  0  0  0  0
    0.2305   -1.9779    0.0000 C   0  0  0  0  0  0  0  0  0  0  0  0
   -1.0664   -1.2242    0.0000 C   0  0  0  0  0  0  0  0  0  0  0  0
   -2.3676   -1.9704    0.0000 C   0  0  0  0  0  0  0  0  0  0  0  0
  1  2  1  0
  2  3  1  0
  3  4  2  0
  4  5  1  0
  5  6  1  0
  6  7  1  0
  5  8  2  0
  8  9  1  0
  9 10  1  0
  9 11  2  0
 11 12  1  0
 12 13  2  0
 12 14  1  0
 14 15  1  1
 14 16  1  0
 16 17  1  6
 16 18  1  0
 18 19  1  0
 19 20  2  0
 20 21  1  0
 21 22  2  0
 22  3  1  0
 21  8  1  0
 19 11  1  0
M  END
>  <identifier>  (194) 
CNP0413540.1

>  <canonical_smiles>  (194) 
COC1=CC(OC)=C2C(O)=C3C(=O)[C@@H](C)[C@H](C)OC3=CC2=C1

>  <standard_inchi>  (194) 
InChI=1S/C17H18O5/c1-8-9(2)22-13-6-10-5-11(20-3)7-12(21-4)14(10)17(19)15(13)16(8)18/h5-9,19H,1-4H3/t8-,9-/m0/s1

>  <standard_inchi_key>  (194) 
DALYWWKMTCBVOR-IUCAKERBSA-N

>  <name>  (194) 
(2S,3S)-5-hydroxy-6,8-dimethoxy-2,3-dimethyl-4H-2,3-dihydronaphtho[2,3-b]pyran-4-one

>  <iupac_name>  (194) 
(2~{S},3~{S})-5-hydroxy-6,8-dimethoxy-2,3-dimethyl-2,3-dihydrobenzo[g]chromen-4-one

>  <annotation_level>  (194) 
5

>  <total_atom_count>  (194) 
40

>  <heavy_atom_count>  (194) 
22

>  <molecular_weight>  (194) 
302.33

>  <exact_molecular_weight>  (194) 
302.11542

>  <molecular_formula>  (194) 
C17H18O5

>  <alogp>  (194) 
3.16

>  <topological_polar_surface_area>  (194) 
64.99

>  <rotatable_bond_count>  (194) 
2

>  <hydrogen_bond_acceptors>  (194) 
5

>  <hydrogen_bond_donors>  (194) 
1

>  <hydrogen_bond_acceptors_lipinski>  (194) 
5

>  <hydrogen_bond_donors_lipinski>  (194) 
1

>  <lipinski_rule_of_five_violations>  (194) 
0

>  <aromatic_rings_count>  (194) 
2

>  <qed_drug_likeliness>  (194) 
0.92

>  <formal_charge>  (194) 
0

>  <fractioncsp3>  (194) 
0.35

>  <number_of_minimal_rings>  (194) 
3

>  <van_der_walls_volume>  (194) 
268.08

>  <contains_sugar>  (194) 
False

>  <contains_ring_sugars>  (194) 
False

>  <contains_linear_sugars>  (194) 
False

>  <murcko_framework>  (194) 
O1c2cc3ccccc3cc2CCC1

>  <np_likeness>  (194) 
1.74

>  <chemical_class>  (194) 
Naphthopyrans

>  <chemical_sub_class>  (194) 
Naphthopyranones

>  <chemical_super_class>  (194) 
Organoheterocyclic compounds

>  <direct_parent_classification>  (194) 
Naphthopyranones

>  <np_classifier_pathway>  (194) 
Polyketides

>  <np_classifier_superclass>  (194) 
Naphthalenes

>  <np_classifier_class>  (194) 
Naphthalenes and derivatives

>  <np_classifier_is_glycoside>  (194) 
False

>  <organisms>  (194) 
Guanomyces polythrix

>  <collections>  (194) 
BIOFACQUIM|Latin America dataset|NPASS|NPAtlas|Super Natural II

>  <dois>  (194) 
10.1021/jf030115x|10.1021/np990534h

>  <synonyms>  (194) 
CHEMBL498063|CHEBI:202085|(2S|3S)-5-hydroxy-6|8-dimethoxy-2|3-dimethyl-2|3-dihydrobenzogchromen-4-one|(2S 3S)-5-hydroxy-6 8-dimethoxy-2 3-dimethyl-4H-2 3-dihydronaphtho2 3-b-pyran-4-one

>  <cas>  (194) 
nan

$$$$

     RDKit          2D

 24 26  0  0  0  0  0  0  0  0999 V2000
   -6.2453   -0.7504    0.0000 C   0  0  0  0  0  0  0  0  0  0  0  0
   -4.9654   -1.5327    0.0000 O   0  0  0  0  0  0  0  0  0  0  0  0
   -3.6480   -0.8154    0.0000 C   0  0  0  0  0  0  0  0  0  0  0  0
   -3.6105    0.6842    0.0000 C   0  0  0  0  0  0  0  0  0  0  0  0
   -2.2931    1.4015    0.0000 C   0  0  0  0  0  0  0  0  0  0  0  0
   -2.2557    2.9010    0.0000 O   0  0  0  0  0  0  0  0  0  0  0  0
   -3.5356    3.6832    0.0000 C   0  0  0  0  0  0  0  0  0  0  0  0
   -1.0132    0.6193    0.0000 C   0  0  0  0  0  0  0  0  0  0  0  0
    0.3041    1.3366    0.0000 C   0  0  0  0  0  0  0  0  0  0  0  0
    0.3416    2.8361    0.0000 O   0  0  0  0  0  0  0  0  0  0  0  0
    1.5840    0.5543    0.0000 C   0  0  0  0  0  0  0  0  0  0  0  0
    2.9014    1.2717    0.0000 C   0  0  0  0  0  0  0  0  0  0  0  0
    2.9389    2.7712    0.0000 O   0  0  0  0  0  0  0  0  0  0  0  0
    4.1813    0.4894    0.0000 C   0  0  0  0  0  0  0  0  0  0  0  0
    5.4987    1.2067    0.0000 C   0  0  0  0  0  0  0  0  0  0  0  0
    4.1438   -1.0101    0.0000 C   0  0  0  0  0  0  0  0  0  0  0  0
    5.4237   -1.7923    0.0000 C   0  0  0  0  0  0  0  0  0  0  0  0
    2.8264   -1.7274    0.0000 O   0  0  0  0  0  0  0  0  0  0  0  0
    1.5465   -0.9452    0.0000 C   0  0  0  0  0  0  0  0  0  0  0  0
    0.2292   -1.6625    0.0000 C   0  0  0  0  0  0  0  0  0  0  0  0
    0.1917   -3.1620    0.0000 O   0  0  0  0  0  0  0  0  0  0  0  0
   -1.1257   -3.8793    0.0000 C   0  0  0  0  0  0  0  0  0  0  0  0
   -1.0507   -0.8803    0.0000 C   0  0  0  0  0  0  0  0  0  0  0  0
   -2.3681   -1.5976    0.0000 C   0  0  0  0  0  0  0  0  0  0  0  0
  1  2  1  0
  2  3  1  0
  3  4  2  0
  4  5  1  0
  5  6  1  0
  6  7  1  0
  5  8  2  0
  8  9  1  0
  9 10  1  0
  9 11  2  0
 11 12  1  0
 12 13  2  0
 12 14  1  0
 14 15  1  1
 14 16  1  0
 16 17  1  6
 16 18  1  0
 18 19  1  0
 19 20  2  0
 20 21  1  0
 21 22  1  0
 20 23  1  0
 23 24  2  0
 24  3  1  0
 23  8  1  0
 19 11  1  0
M  END
>  <identifier>  (195) 
CNP0194795.1

>  <canonical_smiles>  (195) 
COC1=CC(OC)=C2C(O)=C3C(=O)[C@@H](C)[C@H](C)OC3=C(OC)C2=C1

>  <standard_inchi>  (195) 
InChI=1S/C18H20O6/c1-8-9(2)24-18-14(15(8)19)16(20)13-11(17(18)23-5)6-10(21-3)7-12(13)22-4/h6-9,20H,1-5H3/t8-,9-/m0/s1

>  <standard_inchi_key>  (195) 
KRQMXQZQIPIILU-IUCAKERBSA-N

>  <name>  (195) 
(2S,3S)-5-hydroxy-6,8,10-trimethoxy-2,3-dimethyl-4H-2,3-dihydronaphtho[2,3-b]pyran-4-one

>  <iupac_name>  (195) 
(2~{S},3~{S})-5-hydroxy-6,8,10-trimethoxy-2,3-dimethyl-2,3-dihydrobenzo[g]chromen-4-one

>  <annotation_level>  (195) 
5

>  <total_atom_count>  (195) 
44

>  <heavy_atom_count>  (195) 
24

>  <molecular_weight>  (195) 
332.35

>  <exact_molecular_weight>  (195) 
332.12599

>  <molecular_formula>  (195) 
C18H20O6

>  <alogp>  (195) 
3.17

>  <topological_polar_surface_area>  (195) 
74.22

>  <rotatable_bond_count>  (195) 
3

>  <hydrogen_bond_acceptors>  (195) 
6

>  <hydrogen_bond_donors>  (195) 
1

>  <hydrogen_bond_acceptors_lipinski>  (195) 
6

>  <hydrogen_bond_donors_lipinski>  (195) 
1

>  <lipinski_rule_of_five_violations>  (195) 
0

>  <aromatic_rings_count>  (195) 
2

>  <qed_drug_likeliness>  (195) 
0.93

>  <formal_charge>  (195) 
0

>  <fractioncsp3>  (195) 
0.39

>  <number_of_minimal_rings>  (195) 
3

>  <van_der_walls_volume>  (195) 
293.99

>  <contains_sugar>  (195) 
False

>  <contains_ring_sugars>  (195) 
False

>  <contains_linear_sugars>  (195) 
False

>  <murcko_framework>  (195) 
O1c2cc3ccccc3cc2CCC1

>  <np_likeness>  (195) 
1.85

>  <chemical_class>  (195) 
Naphthopyrans

>  <chemical_sub_class>  (195) 
Naphthopyranones

>  <chemical_super_class>  (195) 
Organoheterocyclic compounds

>  <direct_parent_classification>  (195) 
Naphthopyranones

>  <np_classifier_pathway>  (195) 
Polyketides

>  <np_classifier_superclass>  (195) 
Naphthalenes

>  <np_classifier_class>  (195) 
Naphthalenes and derivatives

>  <np_classifier_is_glycoside>  (195) 
False

>  <organisms>  (195) 
Guanomyces polythrix

>  <collections>  (195) 
BIOFACQUIM|Latin America dataset|NPASS|NPAtlas|Super Natural II

>  <dois>  (195) 
10.1021/jf030115x|10.1021/np990534h

>  <synonyms>  (195) 
CHEMBL497708|CHEBI:211560|(2S|3S)-5-hydroxy-6|8|10-trimethoxy-2|3-dimethyl-2|3-dihydrobenzogchromen-4-one|(2S 3S)-5-hydroxy-6 8 10-trimethoxy-2 3-dimethyl-4H2 3-dihydronaphtho2 3-b-pyran-4-one

>  <cas>  (195) 
nan

$$$$

     RDKit          2D

 20 22  0  0  0  0  0  0  0  0999 V2000
   -5.2518   -0.8987    0.0000 C   0  0  0  0  0  0  0  0  0  0  0  0
   -3.8601   -1.4582    0.0000 O   0  0  0  0  0  0  0  0  0  0  0  0
   -2.6797   -0.5327    0.0000 C   0  0  0  0  0  0  0  0  0  0  0  0
   -2.8909    0.9523    0.0000 C   0  0  0  0  0  0  0  0  0  0  0  0
   -1.7105    1.8778    0.0000 C   0  0  0  0  0  0  0  0  0  0  0  0
   -1.9217    3.3629    0.0000 O   0  0  0  0  0  0  0  0  0  0  0  0
   -0.3187    1.3182    0.0000 C   0  0  0  0  0  0  0  0  0  0  0  0
   -0.1075   -0.1668    0.0000 C   0  0  0  0  0  0  0  0  0  0  0  0
   -1.2879   -1.0923    0.0000 C   0  0  0  0  0  0  0  0  0  0  0  0
   -1.0767   -2.5773    0.0000 C   0  0  0  0  0  0  0  0  0  0  0  0
    0.3151   -3.1369    0.0000 O   0  0  0  0  0  0  0  0  0  0  0  0
    1.4955   -2.2114    0.0000 C   0  0  0  0  0  0  0  0  0  0  0  0
    2.8872   -2.7710    0.0000 O   0  0  0  0  0  0  0  0  0  0  0  0
    1.2842   -0.7264    0.0000 C   0  0  0  0  0  0  0  0  0  0  0  0
    2.4647    0.1991    0.0000 C   0  0  0  0  0  0  0  0  0  0  0  0
    3.8564   -0.3604    0.0000 O   0  0  0  0  0  0  0  0  0  0  0  0
    5.0369    0.5651    0.0000 C   0  0  0  0  0  0  0  0  0  0  0  0
    2.2534    1.6842    0.0000 C   0  0  0  0  0  0  0  0  0  0  0  0
    0.8617    2.2437    0.0000 C   0  0  0  0  0  0  0  0  0  0  0  0
    0.6504    3.7288    0.0000 O   0  0  0  0  0  0  0  0  0  0  0  0
  1  2  1  0
  2  3  1  0
  3  4  2  0
  4  5  1  0
  5  6  2  0
  5  7  1  0
  7  8  2  0
  8  9  1  0
  9 10  2  0
 10 11  1  0
 11 12  1  0
 12 13  2  0
 12 14  1  0
 14 15  2  0
 15 16  1  0
 16 17  1  0
 15 18  1  0
 18 19  2  0
 19 20  1  0
  9  3  1  0
 19  7  1  0
 14  8  1  0
M  END
>  <identifier>  (196) 
CNP0324600.0

>  <canonical_smiles>  (196) 
COC1=CC(=O)C2=C3C1=COC(=O)C3=C(OC)C=C2O

>  <standard_inchi>  (196) 
InChI=1S/C14H10O6/c1-18-9-3-7(15)12-8(16)4-10(19-2)13-11(12)6(9)5-20-14(13)17/h3-5,16H,1-2H3

>  <standard_inchi_key>  (196) 
OZEDYANFTHNHQG-UHFFFAOYSA-N

>  <name>  (196) 
Corymbiferone

>  <iupac_name>  (196) 
10-hydroxy-6,12-dimethoxy-3-oxatricyclo[7.3.1.0^{5,13}]trideca-1(12),4,6,9(13),10-pentaene-2,8-dione

>  <annotation_level>  (196) 
5

>  <total_atom_count>  (196) 
30

>  <heavy_atom_count>  (196) 
20

>  <molecular_weight>  (196) 
274.23

>  <exact_molecular_weight>  (196) 
274.04774

>  <molecular_formula>  (196) 
C14H10O6

>  <alogp>  (196) 
1.69

>  <topological_polar_surface_area>  (196) 
85.97

>  <rotatable_bond_count>  (196) 
2

>  <hydrogen_bond_acceptors>  (196) 
6

>  <hydrogen_bond_donors>  (196) 
1

>  <hydrogen_bond_acceptors_lipinski>  (196) 
6

>  <hydrogen_bond_donors_lipinski>  (196) 
1

>  <lipinski_rule_of_five_violations>  (196) 
0

>  <aromatic_rings_count>  (196) 
2

>  <qed_drug_likeliness>  (196) 
0.90

>  <formal_charge>  (196) 
0

>  <fractioncsp3>  (196) 
0.14

>  <number_of_minimal_rings>  (196) 
3

>  <van_der_walls_volume>  (196) 
221.48

>  <contains_sugar>  (196) 
False

>  <contains_ring_sugars>  (196) 
False

>  <contains_linear_sugars>  (196) 
False

>  <murcko_framework>  (196) 
O1C=C2C=CCc3cccc(c23)C1

>  <np_likeness>  (196) 
1.94

>  <chemical_class>  (196) 
Isocoumarins and derivatives

>  <chemical_sub_class>  (196) 
Isocoumarins and derivatives

>  <chemical_super_class>  (196) 
Phenylpropanoids and polyketides

>  <direct_parent_classification>  (196) 
Isocoumarins and derivatives

>  <np_classifier_pathway>  (196) 
Shikimates and Phenylpropanoids

>  <np_classifier_superclass>  (196) 
Coumarins

>  <np_classifier_class>  (196) 
Isocoumarins

>  <np_classifier_is_glycoside>  (196) 
False

>  <organisms>  (196) 
Preussia minimoides

>  <collections>  (196) 
BIOFACQUIM|Latin America dataset|NPASS|UNPD (Universal Natural Products Database)

>  <dois>  (196) 
10.1021/acs.jnatprod.6b00574

>  <synonyms>  (196) 
Corymbiferone

>  <cas>  (196) 
nan

$$$$

     RDKit          2D

 21 23  0  0  0  0  0  0  0  0999 V2000
   -5.9564   -1.3836    0.0000 C   0  0  0  0  0  0  0  0  0  0  0  0
   -4.6324   -2.0886    0.0000 O   0  0  0  0  0  0  0  0  0  0  0  0
   -3.3598   -1.2945    0.0000 C   0  0  0  0  0  0  0  0  0  0  0  0
   -3.4113    0.2046    0.0000 C   0  0  0  0  0  0  0  0  0  0  0  0
   -2.1387    0.9987    0.0000 C   0  0  0  0  0  0  0  0  0  0  0  0
   -2.1901    2.4978    0.0000 O   0  0  0  0  0  0  0  0  0  0  0  0
   -3.5141    3.2028    0.0000 C   0  0  0  0  0  0  0  0  0  0  0  0
   -0.8147    0.2937    0.0000 C   0  0  0  0  0  0  0  0  0  0  0  0
    0.4578    1.0878    0.0000 C   0  0  0  0  0  0  0  0  0  0  0  0
    0.4064    2.5869    0.0000 O   0  0  0  0  0  0  0  0  0  0  0  0
    1.7818    0.3828    0.0000 C   0  0  0  0  0  0  0  0  0  0  0  0
    3.0544    1.1769    0.0000 C   0  0  0  0  0  0  0  0  0  0  0  0
    3.0030    2.6760    0.0000 O   0  0  0  0  0  0  0  0  0  0  0  0
    4.3784    0.4718    0.0000 C   0  0  0  0  0  0  0  0  0  0  0  0
    4.4298   -1.0273    0.0000 C   0  0  0  0  0  0  0  0  0  0  0  0
    5.7538   -1.7323    0.0000 C   0  0  0  0  0  0  0  0  0  0  0  0
    3.1573   -1.8214    0.0000 O   0  0  0  0  0  0  0  0  0  0  0  0
    1.8333   -1.1164    0.0000 C   0  0  0  0  0  0  0  0  0  0  0  0
    0.5607   -1.9105    0.0000 C   0  0  0  0  0  0  0  0  0  0  0  0
   -0.7633   -1.2055    0.0000 C   0  0  0  0  0  0  0  0  0  0  0  0
   -2.0358   -1.9996    0.0000 C   0  0  0  0  0  0  0  0  0  0  0  0
  1  2  1  0
  2  3  1  0
  3  4  2  0
  4  5  1  0
  5  6  1  0
  6  7  1  0
  5  8  2  0
  8  9  1  0
  9 10  1  0
  9 11  2  0
 11 12  1  0
 12 13  2  0
 12 14  1  0
 14 15  1  0
 15 16  1  6
 15 17  1  0
 17 18  1  0
 18 19  2  0
 19 20  1  0
 20 21  2  0
 21  3  1  0
 20  8  1  0
 18 11  1  0
M  END
>  <identifier>  (197) 
CNP0324372.1

>  <canonical_smiles>  (197) 
COC1=CC(OC)=C2C(O)=C3C(=O)C[C@H](C)OC3=CC2=C1

>  <standard_inchi>  (197) 
InChI=1S/C16H16O5/c1-8-4-11(17)15-13(21-8)6-9-5-10(19-2)7-12(20-3)14(9)16(15)18/h5-8,18H,4H2,1-3H3/t8-/m0/s1

>  <standard_inchi_key>  (197) 
AHQXDHIRTWHABS-QMMMGPOBSA-N

>  <name>  (197) 
(2S)-5-hydroxy-6,8-dimethoxy-2-methyl-4H-2,3-dihydronaphtho[2,3-b]pyran-4-one

>  <iupac_name>  (197) 
(2~{S})-5-hydroxy-6,8-dimethoxy-2-methyl-2,3-dihydrobenzo[g]chromen-4-one

>  <annotation_level>  (197) 
5

>  <total_atom_count>  (197) 
37

>  <heavy_atom_count>  (197) 
21

>  <molecular_weight>  (197) 
288.3

>  <exact_molecular_weight>  (197) 
288.09977

>  <molecular_formula>  (197) 
C16H16O5

>  <alogp>  (197) 
2.92

>  <topological_polar_surface_area>  (197) 
64.99

>  <rotatable_bond_count>  (197) 
2

>  <hydrogen_bond_acceptors>  (197) 
5

>  <hydrogen_bond_donors>  (197) 
1

>  <hydrogen_bond_acceptors_lipinski>  (197) 
5

>  <hydrogen_bond_donors_lipinski>  (197) 
1

>  <lipinski_rule_of_five_violations>  (197) 
0

>  <aromatic_rings_count>  (197) 
2

>  <qed_drug_likeliness>  (197) 
0.92

>  <formal_charge>  (197) 
0

>  <fractioncsp3>  (197) 
0.31

>  <number_of_minimal_rings>  (197) 
3

>  <van_der_walls_volume>  (197) 
251.75

>  <contains_sugar>  (197) 
False

>  <contains_ring_sugars>  (197) 
False

>  <contains_linear_sugars>  (197) 
False

>  <murcko_framework>  (197) 
O1c2cc3ccccc3cc2CCC1

>  <np_likeness>  (197) 
1.51

>  <chemical_class>  (197) 
Naphthopyrans

>  <chemical_sub_class>  (197) 
Naphthopyranones

>  <chemical_super_class>  (197) 
Organoheterocyclic compounds

>  <direct_parent_classification>  (197) 
Naphthopyranones

>  <np_classifier_pathway>  (197) 
Polyketides

>  <np_classifier_superclass>  (197) 
Naphthalenes

>  <np_classifier_class>  (197) 
Naphthalenes and derivatives

>  <np_classifier_is_glycoside>  (197) 
False

>  <organisms>  (197) 
Guanomyces polythrix

>  <collections>  (197) 
BIOFACQUIM|Latin America dataset|NPASS|NPAtlas|Super Natural II

>  <dois>  (197) 
10.1021/jf030115x|10.1021/np990534h

>  <synonyms>  (197) 
CHEMBL497723|CHEBI:199895|(2S)-5-hydroxy-6|8-dimethoxy-2-methyl-2|3-dihydrobenzogchromen-4-one|(2S)-5-hydroxy-6 8-dimethoxy-2-methyl-4H-2 3-dihydronaphtho2 3-b-pyran-4-one

>  <cas>  (197) 
nan

$$$$

     RDKit          2D

 23 25  0  0  0  0  0  0  0  0999 V2000
   -5.9597   -1.0214    0.0000 C   0  0  0  0  0  0  0  0  0  0  0  0
   -4.6394   -1.7333    0.0000 O   0  0  0  0  0  0  0  0  0  0  0  0
   -3.3627   -0.9459    0.0000 C   0  0  0  0  0  0  0  0  0  0  0  0
   -3.4063    0.5535    0.0000 C   0  0  0  0  0  0  0  0  0  0  0  0
   -2.1296    1.3409    0.0000 C   0  0  0  0  0  0  0  0  0  0  0  0
   -2.1732    2.8402    0.0000 O   0  0  0  0  0  0  0  0  0  0  0  0
   -3.4935    3.5522    0.0000 C   0  0  0  0  0  0  0  0  0  0  0  0
   -0.8093    0.6289    0.0000 C   0  0  0  0  0  0  0  0  0  0  0  0
    0.4674    1.4163    0.0000 C   0  0  0  0  0  0  0  0  0  0  0  0
    0.4238    2.9157    0.0000 O   0  0  0  0  0  0  0  0  0  0  0  0
    1.7876    0.7044    0.0000 C   0  0  0  0  0  0  0  0  0  0  0  0
    3.0643    1.4918    0.0000 C   0  0  0  0  0  0  0  0  0  0  0  0
    3.0208    2.9912    0.0000 O   0  0  0  0  0  0  0  0  0  0  0  0
    4.3846    0.7799    0.0000 C   0  0  0  0  0  0  0  0  0  0  0  0
    4.4282   -0.7195    0.0000 C   0  0  0  0  0  0  0  0  0  0  0  0
    5.7485   -1.4314    0.0000 C   0  0  0  0  0  0  0  0  0  0  0  0
    3.1515   -1.5069    0.0000 O   0  0  0  0  0  0  0  0  0  0  0  0
    1.8312   -0.7950    0.0000 C   0  0  0  0  0  0  0  0  0  0  0  0
    0.5545   -1.5824    0.0000 C   0  0  0  0  0  0  0  0  0  0  0  0
    0.5981   -3.0818    0.0000 O   0  0  0  0  0  0  0  0  0  0  0  0
   -0.6786   -3.8692    0.0000 C   0  0  0  0  0  0  0  0  0  0  0  0
   -0.7658   -0.8704    0.0000 C   0  0  0  0  0  0  0  0  0  0  0  0
   -2.0425   -1.6579    0.0000 C   0  0  0  0  0  0  0  0  0  0  0  0
  1  2  1  0
  2  3  1  0
  3  4  2  0
  4  5  1  0
  5  6  1  0
  6  7  1  0
  5  8  2  0
  8  9  1  0
  9 10  1  0
  9 11  2  0
 11 12  1  0
 12 13  2  0
 12 14  1  0
 14 15  1  0
 15 16  1  6
 15 17  1  0
 17 18  1  0
 18 19  2  0
 19 20  1  0
 20 21  1  0
 19 22  1  0
 22 23  2  0
 23  3  1  0
 22  8  1  0
 18 11  1  0
M  END
>  <identifier>  (198) 
CNP0211224.1

>  <canonical_smiles>  (198) 
COC1=CC(OC)=C2C(O)=C3C(=O)C[C@H](C)OC3=C(OC)C2=C1

>  <standard_inchi>  (198) 
InChI=1S/C17H18O6/c1-8-5-11(18)14-15(19)13-10(16(22-4)17(14)23-8)6-9(20-2)7-12(13)21-3/h6-8,19H,5H2,1-4H3/t8-/m0/s1

>  <standard_inchi_key>  (198) 
DWGSEYZQYRDTJV-QMMMGPOBSA-N

>  <name>  (198) 
(2S)-5-hydroxy-6,8,10-trimethoxy-2-methyl-4H-2,3-dihydronaphtho[2,3-b]pyran-4-one

>  <iupac_name>  (198) 
(2~{S})-5-hydroxy-6,8,10-trimethoxy-2-methyl-2,3-dihydrobenzo[g]chromen-4-one

>  <annotation_level>  (198) 
5

>  <total_atom_count>  (198) 
41

>  <heavy_atom_count>  (198) 
23

>  <molecular_weight>  (198) 
318.33

>  <exact_molecular_weight>  (198) 
318.11034

>  <molecular_formula>  (198) 
C17H18O6

>  <alogp>  (198) 
2.92

>  <topological_polar_surface_area>  (198) 
74.22

>  <rotatable_bond_count>  (198) 
3

>  <hydrogen_bond_acceptors>  (198) 
6

>  <hydrogen_bond_donors>  (198) 
1

>  <hydrogen_bond_acceptors_lipinski>  (198) 
6

>  <hydrogen_bond_donors_lipinski>  (198) 
1

>  <lipinski_rule_of_five_violations>  (198) 
0

>  <aromatic_rings_count>  (198) 
2

>  <qed_drug_likeliness>  (198) 
0.94

>  <formal_charge>  (198) 
0

>  <fractioncsp3>  (198) 
0.35

>  <number_of_minimal_rings>  (198) 
3

>  <van_der_walls_volume>  (198) 
277.30

>  <contains_sugar>  (198) 
False

>  <contains_ring_sugars>  (198) 
False

>  <contains_linear_sugars>  (198) 
False

>  <murcko_framework>  (198) 
O1c2cc3ccccc3cc2CCC1

>  <np_likeness>  (198) 
1.66

>  <chemical_class>  (198) 
Naphthopyrans

>  <chemical_sub_class>  (198) 
Naphthopyranones

>  <chemical_super_class>  (198) 
Organoheterocyclic compounds

>  <direct_parent_classification>  (198) 
Naphthopyranones

>  <np_classifier_pathway>  (198) 
Polyketides

>  <np_classifier_superclass>  (198) 
Naphthalenes

>  <np_classifier_class>  (198) 
Naphthalenes and derivatives

>  <np_classifier_is_glycoside>  (198) 
False

>  <organisms>  (198) 
Guanomyces polythrix

>  <collections>  (198) 
BIOFACQUIM|Latin America dataset|NPASS|NPAtlas|Super Natural II

>  <dois>  (198) 
10.1021/jf030115x|10.1021/np990534h

>  <synonyms>  (198) 
CHEMBL497901|CHEBI:214965|(2S)-5-hydroxy-6|8|10-trimethoxy-2-methyl-2|3-dihydrobenzogchromen-4-one|(2S)-5-hydroxy-6 8 10-trimethoxy-2-methyl-4H-2 3-dihydronaphtho2 3-b-pyran-4-one

>  <cas>  (198) 
nan

$$$$

     RDKit          2D

 18 19  0  0  0  0  0  0  0  0999 V2000
    0.5639    2.9477    0.0000 C   0  0  0  0  0  0  0  0  0  0  0  0
    0.0381    1.5429    0.0000 C   0  0  0  0  0  0  0  0  0  0  0  0
    0.9918    0.3851    0.0000 C   0  0  0  0  0  0  0  0  0  0  0  0
    0.4660   -1.0197    0.0000 C   0  0  0  0  0  0  0  0  0  0  0  0
    1.4197   -2.1775    0.0000 C   0  0  0  0  0  0  0  0  0  0  0  0
    2.8992   -1.9305    0.0000 O   0  0  0  0  0  0  0  0  0  0  0  0
    3.4250   -0.5257    0.0000 C   0  0  0  0  0  0  0  0  0  0  0  0
    4.9045   -0.2786    0.0000 C   0  0  0  0  0  0  0  0  0  0  0  0
    2.4713    0.6321    0.0000 C   0  0  0  0  0  0  0  0  0  0  0  0
    2.9971    2.0369    0.0000 C   0  0  0  0  0  0  0  0  0  0  0  0
   -1.0136   -1.2667    0.0000 C   0  0  0  0  0  0  0  0  0  0  0  0
   -1.5394   -2.6716    0.0000 O   0  0  0  0  0  0  0  0  0  0  0  0
   -1.9672   -0.1090    0.0000 C   0  0  0  0  0  0  0  0  0  0  0  0
   -3.4468   -0.3560    0.0000 C   0  0  0  0  0  0  0  0  0  0  0  0
   -3.9726   -1.7608    0.0000 O   0  0  0  0  0  0  0  0  0  0  0  0
   -4.4005    0.8018    0.0000 O   0  0  0  0  0  0  0  0  0  0  0  0
   -1.4414    1.2959    0.0000 C   0  0  0  0  0  0  0  0  0  0  0  0
   -2.3951    2.4536    0.0000 O   0  0  0  0  0  0  0  0  0  0  0  0
  1  2  1  0
  2  3  2  0
  3  4  1  0
  4  5  2  0
  5  6  1  0
  6  7  1  0
  7  8  1  6
  7  9  1  0
  9 10  1  1
  4 11  1  0
 11 12  1  0
 11 13  2  0
 13 14  1  0
 14 15  2  0
 14 16  1  0
 13 17  1  0
 17 18  2  0
 17  2  1  0
  9  3  1  0
M  END
>  <identifier>  (199) 
CNP0295337.1

>  <canonical_smiles>  (199) 
CC1=C2C(=CO[C@@H](C)[C@@H]2C)C(O)=C(C(=O)O)C1=O

>  <standard_inchi>  (199) 
InChI=1S/C13H14O5/c1-5-7(3)18-4-8-9(5)6(2)11(14)10(12(8)15)13(16)17/h4-5,7,15H,1-3H3,(H,16,17)/t5-,7-/m0/s1

>  <standard_inchi_key>  (199) 
CQIUKKVOEOPUDV-FSPLSTOPSA-N

>  <name>  (199) 
Citrinin

>  <iupac_name>  (199) 
(3~{S},4~{R})-8-hydroxy-3,4,5-trimethyl-6-oxo-3,4-dihydroisochromene-7-carboxylic acid

>  <annotation_level>  (199) 
5

>  <total_atom_count>  (199) 
32

>  <heavy_atom_count>  (199) 
18

>  <molecular_weight>  (199) 
250.25

>  <exact_molecular_weight>  (199) 
250.08412

>  <molecular_formula>  (199) 
C13H14O5

>  <alogp>  (199) 
1.72

>  <topological_polar_surface_area>  (199) 
83.83

>  <rotatable_bond_count>  (199) 
1

>  <hydrogen_bond_acceptors>  (199) 
4

>  <hydrogen_bond_donors>  (199) 
2

>  <hydrogen_bond_acceptors_lipinski>  (199) 
4

>  <hydrogen_bond_donors_lipinski>  (199) 
2

>  <lipinski_rule_of_five_violations>  (199) 
0

>  <aromatic_rings_count>  (199) 
0

>  <qed_drug_likeliness>  (199) 
0.69

>  <formal_charge>  (199) 
0

>  <fractioncsp3>  (199) 
0.39

>  <number_of_minimal_rings>  (199) 
2

>  <van_der_walls_volume>  (199) 
217.63

>  <contains_sugar>  (199) 
False

>  <contains_ring_sugars>  (199) 
False

>  <contains_linear_sugars>  (199) 
False

>  <murcko_framework>  (199) 
O1C=C2C=CCC=C2CC1

>  <np_likeness>  (199) 
2.16

>  <chemical_class>  (199) 
Vinylogous acids

>  <chemical_sub_class>  (199) 
Vinylogous acids

>  <chemical_super_class>  (199) 
Organic acids and derivatives

>  <direct_parent_classification>  (199) 
Vinylogous acids

>  <np_classifier_pathway>  (199) 
Polyketides

>  <np_classifier_superclass>  (199) 
Chromanes

>  <np_classifier_class>  (199) 
Azaphilones

>  <np_classifier_is_glycoside>  (199) 
False

>  <organisms>  (199) 
Guanomyces polythrix

>  <collections>  (199) 
BIOFACQUIM|Latin America dataset|Super Natural II

>  <dois>  (199) 
10.1021/jf030115x

>  <synonyms>  (199) 
Citrinin

>  <cas>  (199) 
nan

$$$$

     RDKit          2D

 18 19  0  0  0  0  0  0  0  0999 V2000
   -5.1962   -0.5000    0.0000 C   0  0  0  0  0  0  0  0  0  0  0  0
   -3.8971   -1.2500    0.0000 O   0  0  0  0  0  0  0  0  0  0  0  0
   -2.5981   -0.5000    0.0000 C   0  0  0  0  0  0  0  0  0  0  0  0
   -2.5981    1.0000    0.0000 C   0  0  0  0  0  0  0  0  0  0  0  0
   -1.2990    1.7500    0.0000 C   0  0  0  0  0  0  0  0  0  0  0  0
   -1.2990    3.2500    0.0000 O   0  0  0  0  0  0  0  0  0  0  0  0
   -0.0000    1.0000    0.0000 C   0  0  0  0  0  0  0  0  0  0  0  0
    1.2990    1.7500    0.0000 C   0  0  0  0  0  0  0  0  0  0  0  0
    1.2990    3.2500    0.0000 O   0  0  0  0  0  0  0  0  0  0  0  0
    2.5981    1.0000    0.0000 C   0  0  0  0  0  0  0  0  0  0  0  0
    2.5981   -0.5000    0.0000 C   0  0  0  0  0  0  0  0  0  0  0  0
    3.8971   -1.2500    0.0000 O   0  0  0  0  0  0  0  0  0  0  0  0
    5.1962   -0.5000    0.0000 C   0  0  0  0  0  0  0  0  0  0  0  0
    1.2990   -1.2500    0.0000 C   0  0  0  0  0  0  0  0  0  0  0  0
    1.2990   -2.7500    0.0000 C   0  0  0  0  0  0  0  0  0  0  0  0
   -0.0000   -0.5000    0.0000 C   0  0  0  0  0  0  0  0  0  0  0  0
   -1.2990   -1.2500    0.0000 C   0  0  0  0  0  0  0  0  0  0  0  0
   -1.2990   -2.7500    0.0000 O   0  0  0  0  0  0  0  0  0  0  0  0
  1  2  1  0
  2  3  1  0
  3  4  2  0
  4  5  1  0
  5  6  2  0
  5  7  1  0
  7  8  2  0
  8  9  1  0
  8 10  1  0
 10 11  2  0
 11 12  1  0
 12 13  1  0
 11 14  1  0
 14 15  1  0
 14 16  2  0
 16 17  1  0
 17 18  2  0
 17  3  1  0
 16  7  1  0
M  END
>  <identifier>  (200) 
CNP0277746.0

>  <canonical_smiles>  (200) 
COC1=CC(=O)C2=C(O)C=C(OC)C(C)=C2C1=O

>  <standard_inchi>  (200) 
InChI=1S/C13H12O5/c1-6-9(17-2)4-7(14)12-8(15)5-10(18-3)13(16)11(6)12/h4-5,14H,1-3H3

>  <standard_inchi_key>  (200) 
ZNXZQBCPPUYJBI-UHFFFAOYSA-N

>  <name>  (200) 
5-hydroxy-2,7-dimethoxy-8-methylnaphthoquinone

>  <iupac_name>  (200) 
5-hydroxy-2,7-dimethoxy-8-methyl-naphthalene-1,4-dione

>  <annotation_level>  (200) 
5

>  <total_atom_count>  (200) 
30

>  <heavy_atom_count>  (200) 
18

>  <molecular_weight>  (200) 
248.23

>  <exact_molecular_weight>  (200) 
248.06847

>  <molecular_formula>  (200) 
C13H12O5

>  <alogp>  (200) 
1.62

>  <topological_polar_surface_area>  (200) 
72.83

>  <rotatable_bond_count>  (200) 
2

>  <hydrogen_bond_acceptors>  (200) 
5

>  <hydrogen_bond_donors>  (200) 
1

>  <hydrogen_bond_acceptors_lipinski>  (200) 
5

>  <hydrogen_bond_donors_lipinski>  (200) 
1

>  <lipinski_rule_of_five_violations>  (200) 
0

>  <aromatic_rings_count>  (200) 
1

>  <qed_drug_likeliness>  (200) 
0.86

>  <formal_charge>  (200) 
0

>  <fractioncsp3>  (200) 
0.23

>  <number_of_minimal_rings>  (200) 
2

>  <van_der_walls_volume>  (200) 
213.69

>  <contains_sugar>  (200) 
False

>  <contains_ring_sugars>  (200) 
False

>  <contains_linear_sugars>  (200) 
False

>  <murcko_framework>  (200) 
c1ccc2c(c1)CC=CC2

>  <np_likeness>  (200) 
1.88

>  <chemical_class>  (200) 
Naphthalenes

>  <chemical_sub_class>  (200) 
Naphthoquinones

>  <chemical_super_class>  (200) 
Benzenoids

>  <direct_parent_classification>  (200) 
Naphthoquinones

>  <np_classifier_pathway>  (200) 
Polyketides

>  <np_classifier_superclass>  (200) 
Naphthalenes

>  <np_classifier_class>  (200) 
Naphthoquinones

>  <np_classifier_is_glycoside>  (200) 
False

>  <organisms>  (200) 
Preussia minimoides|Sporormiella minimoides

>  <collections>  (200) 
BIOFACQUIM|Latin America dataset|NPAtlas|UNPD (Universal Natural Products Database)

>  <dois>  (200) 
10.1016/j.phytochem.2013.09.006|10.1021/acs.jnatprod.6b00574

>  <synonyms>  (200) 
CHEBI:197702|5-hydroxy-2|7-dimethoxy-8-methylnaphthalene-1|4-dione|5-hydroxy-2 7-dimethoxy-8-methylnaphthoquinone

>  <cas>  (200) 
nan

$$$$

     RDKit          2D

 21 22  0  0  0  0  0  0  0  0999 V2000
    4.1729   -3.8625    0.0000 C   0  0  0  0  0  0  0  0  0  0  0  0
    4.8303   -2.5142    0.0000 O   0  0  0  0  0  0  0  0  0  0  0  0
    3.9914   -1.2708    0.0000 C   0  0  0  0  0  0  0  0  0  0  0  0
    2.4950   -1.3755    0.0000 C   0  0  0  0  0  0  0  0  0  0  0  0
    1.6561   -0.1321    0.0000 C   0  0  0  0  0  0  0  0  0  0  0  0
    0.1598   -0.2369    0.0000 C   0  0  0  0  0  0  0  0  0  0  0  0
   -0.6791    1.0066    0.0000 C   0  0  0  0  0  0  0  0  0  0  0  0
   -2.1755    0.9018    0.0000 C   0  0  0  0  0  0  0  0  0  0  0  0
   -3.0144    2.1453    0.0000 C   0  0  0  0  0  0  0  0  0  0  0  0
   -4.5107    2.0405    0.0000 C   0  0  0  0  0  0  0  0  0  0  0  0
   -5.1681    0.6923    0.0000 C   0  0  0  0  0  0  0  0  0  0  0  0
   -6.6645    0.5875    0.0000 O   0  0  0  0  0  0  0  0  0  0  0  0
   -4.3292   -0.5512    0.0000 C   0  0  0  0  0  0  0  0  0  0  0  0
   -4.9866   -1.8994    0.0000 O   0  0  0  0  0  0  0  0  0  0  0  0
   -4.1477   -3.1429    0.0000 C   0  0  0  0  0  0  0  0  0  0  0  0
   -2.8329   -0.4464    0.0000 C   0  0  0  0  0  0  0  0  0  0  0  0
    2.3136    1.2162    0.0000 C   0  0  0  0  0  0  0  0  0  0  0  0
    3.8099    1.3210    0.0000 C   0  0  0  0  0  0  0  0  0  0  0  0
    4.4673    2.6692    0.0000 O   0  0  0  0  0  0  0  0  0  0  0  0
    5.9637    2.7740    0.0000 C   0  0  0  0  0  0  0  0  0  0  0  0
    4.6488    0.0775    0.0000 C   0  0  0  0  0  0  0  0  0  0  0  0
  1  2  1  0
  2  3  1  0
  3  4  2  0
  4  5  1  0
  5  6  1  0
  6  7  1  0
  7  8  1  0
  8  9  2  0
  9 10  1  0
 10 11  2  0
 11 12  1  0
 11 13  1  0
 13 14  1  0
 14 15  1  0
 13 16  2  0
  5 17  2  0
 17 18  1  0
 18 19  1  0
 19 20  1  0
 18 21  2  0
 21  3  1  0
 16  8  1  0
M  END
>  <identifier>  (201) 
CNP0152646.0

>  <canonical_smiles>  (201) 
COC1=CC(CCC2=CC=C(O)C(OC)=C2)=CC(OC)=C1

>  <standard_inchi>  (201) 
InChI=1S/C17H20O4/c1-19-14-8-13(9-15(11-14)20-2)5-4-12-6-7-16(18)17(10-12)21-3/h6-11,18H,4-5H2,1-3H3

>  <standard_inchi_key>  (201) 
DZXMJUKEEAOGQU-UHFFFAOYSA-N

>  <name>  (201) 
4-[2-(3,5-dimethoxyphenyl)ethyl]-2-methoxyphenol

>  <iupac_name>  (201) 
4-[2-(3,5-dimethoxyphenyl)ethyl]-2-methoxy-phenol

>  <annotation_level>  (201) 
5

>  <total_atom_count>  (201) 
41

>  <heavy_atom_count>  (201) 
21

>  <molecular_weight>  (201) 
288.34

>  <exact_molecular_weight>  (201) 
288.13616

>  <molecular_formula>  (201) 
C17H20O4

>  <alogp>  (201) 
3.20

>  <topological_polar_surface_area>  (201) 
47.92

>  <rotatable_bond_count>  (201) 
6

>  <hydrogen_bond_acceptors>  (201) 
4

>  <hydrogen_bond_donors>  (201) 
1

>  <hydrogen_bond_acceptors_lipinski>  (201) 
4

>  <hydrogen_bond_donors_lipinski>  (201) 
1

>  <lipinski_rule_of_five_violations>  (201) 
0

>  <aromatic_rings_count>  (201) 
2

>  <qed_drug_likeliness>  (201) 
0.89

>  <formal_charge>  (201) 
0

>  <fractioncsp3>  (201) 
0.29

>  <number_of_minimal_rings>  (201) 
2

>  <van_der_walls_volume>  (201) 
272.55

>  <contains_sugar>  (201) 
False

>  <contains_ring_sugars>  (201) 
False

>  <contains_linear_sugars>  (201) 
False

>  <murcko_framework>  (201) 
c1ccc(cc1)CCc2ccccc2

>  <np_likeness>  (201) 
0.44

>  <chemical_class>  (201) 
Stilbenes

>  <chemical_sub_class>  (201) 
Stilbenes

>  <chemical_super_class>  (201) 
Phenylpropanoids and polyketides

>  <direct_parent_classification>  (201) 
Stilbenes

>  <np_classifier_pathway>  (201) 
Shikimates and Phenylpropanoids

>  <np_classifier_superclass>  (201) 
Stilbenoids

>  <np_classifier_class>  (201) 
Monomeric stilbenes

>  <np_classifier_is_glycoside>  (201) 
False

>  <organisms>  (201) 
Epidendrum rigidum

>  <collections>  (201) 
BIOFACQUIM|Latin America dataset

>  <dois>  (201) 
10.1021/jf0508044

>  <synonyms>  (201) 
CHEMBL472432|4'-Hydroxy-3 3' 5-trimethoxybibenzyl

>  <cas>  (201) 
nan

$$$$

     RDKit          2D

 41 46  0  0  0  0  0  0  0  0999 V2000
  -10.7093    1.4455    0.0000 C   0  0  0  0  0  0  0  0  0  0  0  0
   -9.4286    0.6646    0.0000 O   0  0  0  0  0  0  0  0  0  0  0  0
   -8.1120    1.3834    0.0000 C   0  0  0  0  0  0  0  0  0  0  0  0
   -8.0761    2.8829    0.0000 C   0  0  0  0  0  0  0  0  0  0  0  0
   -6.7595    3.6017    0.0000 C   0  0  0  0  0  0  0  0  0  0  0  0
   -6.7237    5.1012    0.0000 O   0  0  0  0  0  0  0  0  0  0  0  0
   -5.4788    2.8208    0.0000 C   0  0  0  0  0  0  0  0  0  0  0  0
   -5.5147    1.3212    0.0000 C   0  0  0  0  0  0  0  0  0  0  0  0
   -6.8313    0.6025    0.0000 C   0  0  0  0  0  0  0  0  0  0  0  0
   -6.8671   -0.8971    0.0000 C   0  0  0  0  0  0  0  0  0  0  0  0
   -8.1837   -1.6158    0.0000 O   0  0  0  0  0  0  0  0  0  0  0  0
   -5.5864   -1.6779    0.0000 C   0  0  0  0  0  0  0  0  0  0  0  0
   -4.2698   -0.9592    0.0000 C   0  0  0  0  0  0  0  0  0  0  0  0
   -2.9891   -1.7400    0.0000 C   0  0  0  0  0  0  0  0  0  0  0  0
   -3.0249   -3.2396    0.0000 C   0  0  0  0  0  0  0  0  0  0  0  0
   -1.7442   -4.0204    0.0000 C   0  0  0  0  0  0  0  0  0  0  0  0
   -0.4276   -3.3017    0.0000 C   0  0  0  0  0  0  0  0  0  0  0  0
    0.8532   -4.0825    0.0000 O   0  0  0  0  0  0  0  0  0  0  0  0
   -0.3917   -1.8021    0.0000 C   0  0  0  0  0  0  0  0  0  0  0  0
    0.9249   -1.0834    0.0000 C   0  0  0  0  0  0  0  0  0  0  0  0
    0.9607    0.4162    0.0000 C   0  0  0  0  0  0  0  0  0  0  0  0
   -0.3200    1.1970    0.0000 O   0  0  0  0  0  0  0  0  0  0  0  0
    2.2773    1.1349    0.0000 C   0  0  0  0  0  0  0  0  0  0  0  0
    3.5581    0.3541    0.0000 C   0  0  0  0  0  0  0  0  0  0  0  0
    4.8747    1.0728    0.0000 O   0  0  0  0  0  0  0  0  0  0  0  0
    6.1554    0.2920    0.0000 C   0  0  0  0  0  0  0  0  0  0  0  0
    7.4720    1.0107    0.0000 C   0  0  0  0  0  0  0  0  0  0  0  0
    8.7527    0.2298    0.0000 C   0  0  0  0  0  0  0  0  0  0  0  0
   10.0693    0.9486    0.0000 C   0  0  0  0  0  0  0  0  0  0  0  0
   10.1052    2.4481    0.0000 C   0  0  0  0  0  0  0  0  0  0  0  0
   11.4218    3.1669    0.0000 O   0  0  0  0  0  0  0  0  0  0  0  0
    8.8245    3.2290    0.0000 C   0  0  0  0  0  0  0  0  0  0  0  0
    7.5079    2.5103    0.0000 C   0  0  0  0  0  0  0  0  0  0  0  0
    6.1195   -1.2076    0.0000 C   0  0  0  0  0  0  0  0  0  0  0  0
    4.8029   -1.9263    0.0000 C   0  0  0  0  0  0  0  0  0  0  0  0
    4.7671   -3.4259    0.0000 O   0  0  0  0  0  0  0  0  0  0  0  0
    3.5222   -1.1455    0.0000 C   0  0  0  0  0  0  0  0  0  0  0  0
    2.2056   -1.8642    0.0000 C   0  0  0  0  0  0  0  0  0  0  0  0
    2.1698   -3.3638    0.0000 O   0  0  0  0  0  0  0  0  0  0  0  0
   -1.6725   -1.0213    0.0000 C   0  0  0  0  0  0  0  0  0  0  0  0
   -4.2339    0.5404    0.0000 O   0  0  0  0  0  0  0  0  0  0  0  0
  1  2  1  0
  2  3  1  0
  3  4  2  0
  4  5  1  0
  5  6  1  0
  5  7  2  0
  7  8  1  0
  8  9  2  0
  9 10  1  0
 10 11  2  0
 10 12  1  0
 12 13  1  0
 13 14  1  6
 14 15  2  0
 15 16  1  0
 16 17  2  0
 17 18  1  0
 17 19  1  0
 19 20  1  0
 20 21  2  0
 21 22  1  0
 21 23  1  0
 23 24  2  0
 24 25  1  0
 25 26  1  0
 26 27  1  0
 27 28  2  0
 28 29  1  0
 29 30  2  0
 30 31  1  0
 30 32  1  0
 32 33  2  0
 26 34  2  0
 34 35  1  0
 35 36  2  0
 35 37  1  0
 37 38  2  0
 38 39  1  0
 19 40  2  0
 13 41  1  0
  9  3  1  0
 40 14  1  0
 41  8  1  0
 38 20  1  0
 37 24  1  0
 33 27  1  0
M  END
>  <identifier>  (202) 
CNP0332590.1

>  <canonical_smiles>  (202) 
COC1=CC(O)=CC2=C1C(=O)C[C@@H](C1=CC=C(O)C(C3=C(O)C=C4OC(C5=CC=C(O)C=C5)=CC(=O)C4=C3O)=C1)O2

>  <standard_inchi>  (202) 
InChI=1S/C31H22O10/c1-39-25-9-17(33)10-26-29(25)21(36)11-24(41-26)15-4-7-19(34)18(8-15)28-20(35)13-27-30(31(28)38)22(37)12-23(40-27)14-2-5-16(32)6-3-14/h2-10,12-13,24,32-35,38H,11H2,1H3/t24-/m0/s1

>  <standard_inchi_key>  (202) 
PENVZGWIOSIDJF-DEOSSOPVSA-N

>  <name>  (202) 
nan

>  <iupac_name>  (202) 
5,7-dihydroxy-6-[2-hydroxy-5-[(2~{S})-7-hydroxy-5-methoxy-4-oxo-chroman-2-yl]phenyl]-2-(4-hydroxyphenyl)chromen-4-one

>  <annotation_level>  (202) 
5

>  <total_atom_count>  (202) 
63

>  <heavy_atom_count>  (202) 
41

>  <molecular_weight>  (202) 
554.51

>  <exact_molecular_weight>  (202) 
554.1213

>  <molecular_formula>  (202) 
C31H22O10

>  <alogp>  (202) 
5.37

>  <topological_polar_surface_area>  (202) 
166.89

>  <rotatable_bond_count>  (202) 
4

>  <hydrogen_bond_acceptors>  (202) 
10

>  <hydrogen_bond_donors>  (202) 
5

>  <hydrogen_bond_acceptors_lipinski>  (202) 
10

>  <hydrogen_bond_donors_lipinski>  (202) 
5

>  <lipinski_rule_of_five_violations>  (202) 
2

>  <aromatic_rings_count>  (202) 
5

>  <qed_drug_likeliness>  (202) 
0.19

>  <formal_charge>  (202) 
0

>  <fractioncsp3>  (202) 
0.10

>  <number_of_minimal_rings>  (202) 
6

>  <van_der_walls_volume>  (202) 
456.92

>  <contains_sugar>  (202) 
False

>  <contains_ring_sugars>  (202) 
False

>  <contains_linear_sugars>  (202) 
False

>  <murcko_framework>  (202) 
O1c2ccc(cc2CC=C1c3ccccc3)-c4cccc(c4)C5Oc6ccccc6CC5

>  <np_likeness>  (202) 
1.64

>  <chemical_class>  (202) 
Flavonoids

>  <chemical_sub_class>  (202) 
Biflavonoids and polyflavonoids

>  <chemical_super_class>  (202) 
Phenylpropanoids and polyketides

>  <direct_parent_classification>  (202) 
Biflavonoids and polyflavonoids

>  <np_classifier_pathway>  (202) 
Shikimates and Phenylpropanoids

>  <np_classifier_superclass>  (202) 
Flavonoids

>  <np_classifier_class>  (202) 
Flavones

>  <np_classifier_is_glycoside>  (202) 
False

>  <organisms>  (202) 
Selaginella lepidophylla

>  <collections>  (202) 
BIOFACQUIM|Latin America dataset|Super Natural II

>  <dois>  (202) 
10.1021/jf8010432

>  <synonyms>  (202) 
2 3-Dihydrorobustaflavone 5-methyl ether

>  <cas>  (202) 
nan

$$$$

     RDKit          2D

 22 23  0  0  0  0  0  0  0  0999 V2000
    4.6717   -3.7576    0.0000 C   0  0  0  0  0  0  0  0  0  0  0  0
    5.2733   -2.3836    0.0000 O   0  0  0  0  0  0  0  0  0  0  0  0
    4.3842   -1.1755    0.0000 C   0  0  0  0  0  0  0  0  0  0  0  0
    2.8934   -1.3414    0.0000 C   0  0  0  0  0  0  0  0  0  0  0  0
    2.0043   -0.1334    0.0000 C   0  0  0  0  0  0  0  0  0  0  0  0
    0.5135   -0.2993    0.0000 C   0  0  0  0  0  0  0  0  0  0  0  0
   -0.3756    0.9088    0.0000 C   0  0  0  0  0  0  0  0  0  0  0  0
   -1.8664    0.7428    0.0000 C   0  0  0  0  0  0  0  0  0  0  0  0
   -2.7555    1.9509    0.0000 C   0  0  0  0  0  0  0  0  0  0  0  0
   -4.2463    1.7850    0.0000 C   0  0  0  0  0  0  0  0  0  0  0  0
   -4.8480    0.4109    0.0000 C   0  0  0  0  0  0  0  0  0  0  0  0
   -6.3387    0.2450    0.0000 O   0  0  0  0  0  0  0  0  0  0  0  0
   -7.2279    1.4531    0.0000 C   0  0  0  0  0  0  0  0  0  0  0  0
   -3.9588   -0.7972    0.0000 C   0  0  0  0  0  0  0  0  0  0  0  0
   -4.5605   -2.1712    0.0000 O   0  0  0  0  0  0  0  0  0  0  0  0
   -3.6714   -3.3793    0.0000 C   0  0  0  0  0  0  0  0  0  0  0  0
   -2.4680   -0.6312    0.0000 C   0  0  0  0  0  0  0  0  0  0  0  0
    2.6060    1.2407    0.0000 C   0  0  0  0  0  0  0  0  0  0  0  0
    4.0968    1.4066    0.0000 C   0  0  0  0  0  0  0  0  0  0  0  0
    4.6985    2.7807    0.0000 O   0  0  0  0  0  0  0  0  0  0  0  0
    6.1893    2.9466    0.0000 C   0  0  0  0  0  0  0  0  0  0  0  0
    4.9859    0.1985    0.0000 C   0  0  0  0  0  0  0  0  0  0  0  0
  1  2  1  0
  2  3  1  0
  3  4  2  0
  4  5  1  0
  5  6  1  0
  6  7  1  0
  7  8  1  0
  8  9  2  0
  9 10  1  0
 10 11  2  0
 11 12  1  0
 12 13  1  0
 11 14  1  0
 14 15  1  0
 15 16  1  0
 14 17  2  0
  5 18  2  0
 18 19  1  0
 19 20  1  0
 20 21  1  0
 19 22  2  0
 22  3  1  0
 17  8  1  0
M  END
>  <identifier>  (203) 
CNP0080327.0

>  <canonical_smiles>  (203) 
COC1=CC(CCC2=CC=C(OC)C(OC)=C2)=CC(OC)=C1

>  <standard_inchi>  (203) 
InChI=1S/C18H22O4/c1-19-15-9-14(10-16(12-15)20-2)6-5-13-7-8-17(21-3)18(11-13)22-4/h7-12H,5-6H2,1-4H3

>  <standard_inchi_key>  (203) 
HCRRYKYLZWKBBM-UHFFFAOYSA-N

>  <name>  (203) 
Gigantol tetramethyl ether

>  <iupac_name>  (203) 
1-[2-(3,4-dimethoxyphenyl)ethyl]-3,5-dimethoxy-benzene

>  <annotation_level>  (203) 
5

>  <total_atom_count>  (203) 
44

>  <heavy_atom_count>  (203) 
22

>  <molecular_weight>  (203) 
302.37

>  <exact_molecular_weight>  (203) 
302.15181

>  <molecular_formula>  (203) 
C18H22O4

>  <alogp>  (203) 
3.51

>  <topological_polar_surface_area>  (203) 
36.92

>  <rotatable_bond_count>  (203) 
7

>  <hydrogen_bond_acceptors>  (203) 
4

>  <hydrogen_bond_donors>  (203) 
0

>  <hydrogen_bond_acceptors_lipinski>  (203) 
4

>  <hydrogen_bond_donors_lipinski>  (203) 
0

>  <lipinski_rule_of_five_violations>  (203) 
0

>  <aromatic_rings_count>  (203) 
2

>  <qed_drug_likeliness>  (203) 
0.78

>  <formal_charge>  (203) 
0

>  <fractioncsp3>  (203) 
0.33

>  <number_of_minimal_rings>  (203) 
2

>  <van_der_walls_volume>  (203) 
289.05

>  <contains_sugar>  (203) 
False

>  <contains_ring_sugars>  (203) 
False

>  <contains_linear_sugars>  (203) 
False

>  <murcko_framework>  (203) 
c1ccc(cc1)CCc2ccccc2

>  <np_likeness>  (203) 
0.08

>  <chemical_class>  (203) 
Stilbenes

>  <chemical_sub_class>  (203) 
Stilbenes

>  <chemical_super_class>  (203) 
Phenylpropanoids and polyketides

>  <direct_parent_classification>  (203) 
Stilbenes

>  <np_classifier_pathway>  (203) 
Shikimates and Phenylpropanoids

>  <np_classifier_superclass>  (203) 
Stilbenoids

>  <np_classifier_class>  (203) 
Monomeric stilbenes

>  <np_classifier_is_glycoside>  (203) 
False

>  <organisms>  (203) 
Combretum caffrum|Epidendrum rigidum

>  <collections>  (203) 
BIOFACQUIM|CMAUP (cCollective molecular activities of useful plants)|Latin America dataset|NPASS

>  <dois>  (203) 
10.1021/jf0508044|10.1021/np50057a011

>  <synonyms>  (203) 
22318-87-2|Benzene| 4-(2-(3|5-dimethoxyphenyl)ethyl)-1|2-dimethoxy-|Bibenzyl| 3|3'|4|5'-tetramethoxy-|3|3'|4'|5-Tetramethoxybibenzyl|CHEMBL519743|DTXSID70176862|combretastsatin B-4 permethyl ether|3 3' 4' 5-tetramethoxybibenzyl

>  <cas>  (203) 
22318-87-2

$$$$

     RDKit          2D

 18 19  0  0  0  0  0  0  0  0999 V2000
   -5.6007   -2.4861    0.0000 C   0  0  0  0  0  0  0  0  0  0  0  0
   -4.1092   -2.3266    0.0000 O   0  0  0  0  0  0  0  0  0  0  0  0
   -3.5016   -0.9552    0.0000 C   0  0  0  0  0  0  0  0  0  0  0  0
   -4.3855    0.2567    0.0000 C   0  0  0  0  0  0  0  0  0  0  0  0
   -3.7779    1.6282    0.0000 C   0  0  0  0  0  0  0  0  0  0  0  0
   -4.6618    2.8401    0.0000 O   0  0  0  0  0  0  0  0  0  0  0  0
   -2.2864    1.7877    0.0000 C   0  0  0  0  0  0  0  0  0  0  0  0
   -1.4025    0.5758    0.0000 C   0  0  0  0  0  0  0  0  0  0  0  0
    0.0890    0.7353    0.0000 C   0  0  0  0  0  0  0  0  0  0  0  0
    0.9729   -0.4766    0.0000 C   0  0  0  0  0  0  0  0  0  0  0  0
    2.4644   -0.3171    0.0000 C   0  0  0  0  0  0  0  0  0  0  0  0
    3.3483   -1.5290    0.0000 C   0  0  0  0  0  0  0  0  0  0  0  0
    4.8398   -1.3694    0.0000 C   0  0  0  0  0  0  0  0  0  0  0  0
    5.4473    0.0020    0.0000 C   0  0  0  0  0  0  0  0  0  0  0  0
    6.9388    0.1615    0.0000 O   0  0  0  0  0  0  0  0  0  0  0  0
    4.5634    1.2139    0.0000 C   0  0  0  0  0  0  0  0  0  0  0  0
    3.0720    1.0544    0.0000 C   0  0  0  0  0  0  0  0  0  0  0  0
   -2.0101   -0.7956    0.0000 C   0  0  0  0  0  0  0  0  0  0  0  0
  1  2  1  0
  2  3  1  0
  3  4  2  0
  4  5  1  0
  5  6  1  0
  5  7  2  0
  7  8  1  0
  8  9  1  0
  9 10  1  0
 10 11  1  0
 11 12  2  0
 12 13  1  0
 13 14  2  0
 14 15  1  0
 14 16  1  0
 16 17  2  0
  8 18  2  0
 18  3  1  0
 17 11  1  0
M  END
>  <identifier>  (204) 
CNP0191765.0

>  <canonical_smiles>  (204) 
COC1=CC(O)=CC(CCC2=CC=C(O)C=C2)=C1

>  <standard_inchi>  (204) 
InChI=1S/C15H16O3/c1-18-15-9-12(8-14(17)10-15)3-2-11-4-6-13(16)7-5-11/h4-10,16-17H,2-3H2,1H3

>  <standard_inchi_key>  (204) 
NSBYGUHECONSDC-UHFFFAOYSA-N

>  <name>  (204) 
8KZ

>  <iupac_name>  (204) 
3-[2-(4-hydroxyphenyl)ethyl]-5-methoxy-phenol

>  <annotation_level>  (204) 
5

>  <total_atom_count>  (204) 
34

>  <heavy_atom_count>  (204) 
18

>  <molecular_weight>  (204) 
244.29

>  <exact_molecular_weight>  (204) 
244.10994

>  <molecular_formula>  (204) 
C15H16O3

>  <alogp>  (204) 
2.89

>  <topological_polar_surface_area>  (204) 
49.69

>  <rotatable_bond_count>  (204) 
4

>  <hydrogen_bond_acceptors>  (204) 
3

>  <hydrogen_bond_donors>  (204) 
2

>  <hydrogen_bond_acceptors_lipinski>  (204) 
3

>  <hydrogen_bond_donors_lipinski>  (204) 
2

>  <lipinski_rule_of_five_violations>  (204) 
0

>  <aromatic_rings_count>  (204) 
2

>  <qed_drug_likeliness>  (204) 
0.87

>  <formal_charge>  (204) 
0

>  <fractioncsp3>  (204) 
0.20

>  <number_of_minimal_rings>  (204) 
2

>  <van_der_walls_volume>  (204) 
231.18

>  <contains_sugar>  (204) 
False

>  <contains_ring_sugars>  (204) 
False

>  <contains_linear_sugars>  (204) 
False

>  <murcko_framework>  (204) 
c1ccc(cc1)CCc2ccccc2

>  <np_likeness>  (204) 
0.65

>  <chemical_class>  (204) 
Stilbenes

>  <chemical_sub_class>  (204) 
Stilbenes

>  <chemical_super_class>  (204) 
Phenylpropanoids and polyketides

>  <direct_parent_classification>  (204) 
Stilbenes

>  <np_classifier_pathway>  (204) 
Shikimates and Phenylpropanoids

>  <np_classifier_superclass>  (204) 
Stilbenoids

>  <np_classifier_class>  (204) 
Monomeric stilbenes

>  <np_classifier_is_glycoside>  (204) 
False

>  <organisms>  (204) 
Bulbophyllum triste|Cannabis sativa|Combretum apiculatum|Dendrobium amoenum|Echium glomeratum|Epidendrum rigidum|Geigeria africana|Helichrysum aphelexioides

>  <collections>  (204) 
BIOFACQUIM|KNApSaCK|Latin America dataset|NPASS|NPEdia|Super Natural II|UNPD (Universal Natural Products Database)|VietHerb

>  <dois>  (204) 
10.1021/jf0508044

>  <synonyms>  (204) 
Phenol| 3-2-(4-hydroxyphenyl)ethyl-5-methoxy-|67884-29-1|CHEMBL448371|SCHEMBL16568144|DTXSID30434213|3|4'-dihydroxy-5-methoxybibenzyl

>  <cas>  (204) 
67884-29-1

$$$$

     RDKit          2D

 19 20  0  0  0  0  0  0  0  0999 V2000
   -6.6455   -1.7247    0.0000 C   0  0  0  0  0  0  0  0  0  0  0  0
   -5.1456   -1.7367    0.0000 O   0  0  0  0  0  0  0  0  0  0  0  0
   -4.3853   -0.4436    0.0000 C   0  0  0  0  0  0  0  0  0  0  0  0
   -5.1249    0.8613    0.0000 C   0  0  0  0  0  0  0  0  0  0  0  0
   -4.3645    2.1544    0.0000 C   0  0  0  0  0  0  0  0  0  0  0  0
   -2.8646    2.1424    0.0000 C   0  0  0  0  0  0  0  0  0  0  0  0
   -2.1250    0.8374    0.0000 C   0  0  0  0  0  0  0  0  0  0  0  0
   -0.6250    0.8255    0.0000 C   0  0  0  0  0  0  0  0  0  0  0  0
    0.1146   -0.4795    0.0000 C   0  0  0  0  0  0  0  0  0  0  0  0
    1.6146   -0.4915    0.0000 C   0  0  0  0  0  0  0  0  0  0  0  0
    2.3542   -1.7965    0.0000 C   0  0  0  0  0  0  0  0  0  0  0  0
    3.8541   -1.8084    0.0000 C   0  0  0  0  0  0  0  0  0  0  0  0
    4.5937   -3.1134    0.0000 O   0  0  0  0  0  0  0  0  0  0  0  0
    4.6145   -0.5154    0.0000 C   0  0  0  0  0  0  0  0  0  0  0  0
    3.8748    0.7896    0.0000 C   0  0  0  0  0  0  0  0  0  0  0  0
    4.6352    2.0826    0.0000 O   0  0  0  0  0  0  0  0  0  0  0  0
    6.1351    2.0706    0.0000 C   0  0  0  0  0  0  0  0  0  0  0  0
    2.3749    0.8015    0.0000 C   0  0  0  0  0  0  0  0  0  0  0  0
   -2.8853   -0.4556    0.0000 C   0  0  0  0  0  0  0  0  0  0  0  0
  1  2  1  0
  2  3  1  0
  3  4  2  0
  4  5  1  0
  5  6  2  0
  6  7  1  0
  7  8  1  0
  8  9  1  0
  9 10  1  0
 10 11  2  0
 11 12  1  0
 12 13  1  0
 12 14  2  0
 14 15  1  0
 15 16  1  0
 16 17  1  0
 15 18  2  0
  7 19  2  0
 19  3  1  0
 18 10  1  0
M  END
>  <identifier>  (205) 
CNP0310241.0

>  <canonical_smiles>  (205) 
COC1=CC=CC(CCC2=CC(O)=CC(OC)=C2)=C1

>  <standard_inchi>  (205) 
InChI=1S/C16H18O3/c1-18-15-5-3-4-12(9-15)6-7-13-8-14(17)11-16(10-13)19-2/h3-5,8-11,17H,6-7H2,1-2H3

>  <standard_inchi_key>  (205) 
FDJURJXPMJANDW-UHFFFAOYSA-N

>  <name>  (205) 
3'-O-Methylbatatasin III

>  <iupac_name>  (205) 
3-methoxy-5-[2-(3-methoxyphenyl)ethyl]phenol

>  <annotation_level>  (205) 
5

>  <total_atom_count>  (205) 
37

>  <heavy_atom_count>  (205) 
19

>  <molecular_weight>  (205) 
258.32

>  <exact_molecular_weight>  (205) 
258.12559

>  <molecular_formula>  (205) 
C16H18O3

>  <alogp>  (205) 
3.19

>  <topological_polar_surface_area>  (205) 
38.69

>  <rotatable_bond_count>  (205) 
5

>  <hydrogen_bond_acceptors>  (205) 
3

>  <hydrogen_bond_donors>  (205) 
1

>  <hydrogen_bond_acceptors_lipinski>  (205) 
3

>  <hydrogen_bond_donors_lipinski>  (205) 
1

>  <lipinski_rule_of_five_violations>  (205) 
0

>  <aromatic_rings_count>  (205) 
2

>  <qed_drug_likeliness>  (205) 
0.89

>  <formal_charge>  (205) 
0

>  <fractioncsp3>  (205) 
0.25

>  <number_of_minimal_rings>  (205) 
2

>  <van_der_walls_volume>  (205) 
247.54

>  <contains_sugar>  (205) 
False

>  <contains_ring_sugars>  (205) 
False

>  <contains_linear_sugars>  (205) 
False

>  <murcko_framework>  (205) 
c1ccc(cc1)CCc2ccccc2

>  <np_likeness>  (205) 
0.38

>  <chemical_class>  (205) 
Stilbenes

>  <chemical_sub_class>  (205) 
Stilbenes

>  <chemical_super_class>  (205) 
Phenylpropanoids and polyketides

>  <direct_parent_classification>  (205) 
Stilbenes

>  <np_classifier_pathway>  (205) 
Shikimates and Phenylpropanoids

>  <np_classifier_superclass>  (205) 
Stilbenoids

>  <np_classifier_class>  (205) 
Monomeric stilbenes

>  <np_classifier_is_glycoside>  (205) 
False

>  <organisms>  (205) 
Ariocarpus scapharostrus|Bletilla formosana|Bletilla striata|Coelogyne ovalis|Epidendrum rigidum|Gymnadenia conopsea|Sargassum siliquastrum|Syzygium aromaticum|Tolpis webbii

>  <collections>  (205) 
BIOFACQUIM|CMAUP (cCollective molecular activities of useful plants)|KNApSaCK|Latin America dataset|NPASS|NPEdia|Phyto4Health|Super Natural II|TCMDB-Taiwan (Traditional Chinese Medicine database)|TCMID (Traditional Chinese Medicine Integrated Database)|UNPD (Universal Natural Products Database)|VietHerb|ZINC NP

>  <dois>  (205) 
10.1021/acs.jnatprod.6b00118|10.1021/jf0508044

>  <synonyms>  (205) 
101330-69-2|Phenol| 3-methoxy-5-2-(3-methoxyphenyl)ethyl-|3-methoxy-5-2-(3-methoxyphenyl)ethylphenol|3-Methoxy-5-(3-methoxyphenethyl)phenol|CHEMBL477124|DTXSID40331921|CHEBI:137813|3-hydroxy-3'|5-dimethoxybibenzyl|HY-N8175|LMPK13090040|AKOS040760219|MS-23645|PD167301|CS-0140259|E88631|A901636|3'-O-methylbatatasin III

>  <cas>  (205) 
101330-69-2

$$$$

     RDKit          2D

 17 18  0  0  0  0  0  0  0  0999 V2000
   -4.9112   -2.3691    0.0000 O   0  0  0  0  0  0  0  0  0  0  0  0
   -4.3239   -0.9889    0.0000 C   0  0  0  0  0  0  0  0  0  0  0  0
   -5.2255    0.2099    0.0000 C   0  0  0  0  0  0  0  0  0  0  0  0
   -4.6382    1.5901    0.0000 C   0  0  0  0  0  0  0  0  0  0  0  0
   -3.1492    1.7716    0.0000 C   0  0  0  0  0  0  0  0  0  0  0  0
   -2.2476    0.5728    0.0000 C   0  0  0  0  0  0  0  0  0  0  0  0
   -0.7586    0.7543    0.0000 C   0  0  0  0  0  0  0  0  0  0  0  0
    0.1431   -0.4444    0.0000 C   0  0  0  0  0  0  0  0  0  0  0  0
    1.6320   -0.2630    0.0000 C   0  0  0  0  0  0  0  0  0  0  0  0
    2.5337   -1.4617    0.0000 C   0  0  0  0  0  0  0  0  0  0  0  0
    4.0227   -1.2802    0.0000 C   0  0  0  0  0  0  0  0  0  0  0  0
    4.9243   -2.4790    0.0000 O   0  0  0  0  0  0  0  0  0  0  0  0
    4.6100    0.1000    0.0000 C   0  0  0  0  0  0  0  0  0  0  0  0
    3.7083    1.2987    0.0000 C   0  0  0  0  0  0  0  0  0  0  0  0
    4.2957    2.6790    0.0000 O   0  0  0  0  0  0  0  0  0  0  0  0
    2.2194    1.1173    0.0000 C   0  0  0  0  0  0  0  0  0  0  0  0
   -2.8349   -0.8074    0.0000 C   0  0  0  0  0  0  0  0  0  0  0  0
  1  2  1  0
  2  3  2  0
  3  4  1  0
  4  5  2  0
  5  6  1  0
  6  7  1  0
  7  8  1  0
  8  9  1  0
  9 10  2  0
 10 11  1  0
 11 12  1  0
 11 13  2  0
 13 14  1  0
 14 15  1  0
 14 16  2  0
  6 17  2  0
 17  2  1  0
 16  9  1  0
M  END
>  <identifier>  (206) 
CNP0256465.0

>  <canonical_smiles>  (206) 
OC1=CC=CC(CCC2=CC(O)=CC(O)=C2)=C1

>  <standard_inchi>  (206) 
InChI=1S/C14H14O3/c15-12-3-1-2-10(6-12)4-5-11-7-13(16)9-14(17)8-11/h1-3,6-9,15-17H,4-5H2

>  <standard_inchi_key>  (206) 
UMZJVKFVOMTAFO-UHFFFAOYSA-N

>  <name>  (206) 
3,3',5-Trihydroxybibenzyl

>  <iupac_name>  (206) 
5-[2-(3-hydroxyphenyl)ethyl]benzene-1,3-diol

>  <annotation_level>  (206) 
5

>  <total_atom_count>  (206) 
31

>  <heavy_atom_count>  (206) 
17

>  <molecular_weight>  (206) 
230.26

>  <exact_molecular_weight>  (206) 
230.09429

>  <molecular_formula>  (206) 
C14H14O3

>  <alogp>  (206) 
2.59

>  <topological_polar_surface_area>  (206) 
60.69

>  <rotatable_bond_count>  (206) 
3

>  <hydrogen_bond_acceptors>  (206) 
3

>  <hydrogen_bond_donors>  (206) 
3

>  <hydrogen_bond_acceptors_lipinski>  (206) 
3

>  <hydrogen_bond_donors_lipinski>  (206) 
3

>  <lipinski_rule_of_five_violations>  (206) 
0

>  <aromatic_rings_count>  (206) 
2

>  <qed_drug_likeliness>  (206) 
0.76

>  <formal_charge>  (206) 
0

>  <fractioncsp3>  (206) 
0.14

>  <number_of_minimal_rings>  (206) 
2

>  <van_der_walls_volume>  (206) 
213.71

>  <contains_sugar>  (206) 
False

>  <contains_ring_sugars>  (206) 
False

>  <contains_linear_sugars>  (206) 
False

>  <murcko_framework>  (206) 
c1ccc(cc1)CCc2ccccc2

>  <np_likeness>  (206) 
0.66

>  <chemical_class>  (206) 
Stilbenes

>  <chemical_sub_class>  (206) 
Stilbenes

>  <chemical_super_class>  (206) 
Phenylpropanoids and polyketides

>  <direct_parent_classification>  (206) 
Stilbenes

>  <np_classifier_pathway>  (206) 
Shikimates and Phenylpropanoids

>  <np_classifier_superclass>  (206) 
Stilbenoids

>  <np_classifier_class>  (206) 
Monomeric stilbenes

>  <np_classifier_is_glycoside>  (206) 
False

>  <organisms>  (206) 
Dendrobium nobile|Epidendrum rigidum|Phalaenopsis sp.

>  <collections>  (206) 
BIOFACQUIM|ChEBI NPs|Latin America dataset|NPASS|UNPD (Universal Natural Products Database)

>  <dois>  (206) 
10.1006/abbi.1995.1154|10.1021/acs.jnatprod.6b00252|10.1021/jf0508044

>  <synonyms>  (206) 
86630-23-1|3|5|3'-Trihydroxybibenzyl|5-2-(3-hydroxyphenyl)ethylbenzene-1|3-diol|CHEBI:87804|1|3-Benzenediol| 5-2-(3-hydroxyphenyl)ethyl-|5-(3-Hydroxyphenethyl)benzene-1|3-diol|CHEMBL479325|SCHEMBL8947211|DTXSID50615981|AKOS040762880|Q27159943|3 3' 5-trihydroxybibenzyl

>  <cas>  (206) 
86630-23-1

$$$$

     RDKit          2D

 17 18  0  0  0  0  0  0  0  0999 V2000
   -6.5930   -0.4655    0.0000 O   0  0  0  0  0  0  0  0  0  0  0  0
   -5.1158   -0.2047    0.0000 C   0  0  0  0  0  0  0  0  0  0  0  0
   -4.6031    1.2049    0.0000 C   0  0  0  0  0  0  0  0  0  0  0  0
   -3.1259    1.4657    0.0000 C   0  0  0  0  0  0  0  0  0  0  0  0
   -2.1615    0.3168    0.0000 C   0  0  0  0  0  0  0  0  0  0  0  0
   -0.6843    0.5776    0.0000 C   0  0  0  0  0  0  0  0  0  0  0  0
    0.2801   -0.5713    0.0000 C   0  0  0  0  0  0  0  0  0  0  0  0
    1.7572   -0.3106    0.0000 C   0  0  0  0  0  0  0  0  0  0  0  0
    2.7216   -1.4595    0.0000 C   0  0  0  0  0  0  0  0  0  0  0  0
    4.1988   -1.1987    0.0000 C   0  0  0  0  0  0  0  0  0  0  0  0
    5.1632   -2.3476    0.0000 O   0  0  0  0  0  0  0  0  0  0  0  0
    4.7115    0.2109    0.0000 C   0  0  0  0  0  0  0  0  0  0  0  0
    3.7471    1.3598    0.0000 C   0  0  0  0  0  0  0  0  0  0  0  0
    4.2599    2.7695    0.0000 O   0  0  0  0  0  0  0  0  0  0  0  0
    2.2700    1.0991    0.0000 C   0  0  0  0  0  0  0  0  0  0  0  0
   -2.6743   -1.0928    0.0000 C   0  0  0  0  0  0  0  0  0  0  0  0
   -4.1514   -1.3536    0.0000 C   0  0  0  0  0  0  0  0  0  0  0  0
  1  2  1  0
  2  3  2  0
  3  4  1  0
  4  5  2  0
  5  6  1  0
  6  7  1  0
  7  8  1  0
  8  9  2  0
  9 10  1  0
 10 11  1  0
 10 12  2  0
 12 13  1  0
 13 14  1  0
 13 15  2  0
  5 16  1  0
 16 17  2  0
 17  2  1  0
 15  8  1  0
M  END
>  <identifier>  (207) 
CNP0200131.0

>  <canonical_smiles>  (207) 
OC1=CC=C(CCC2=CC(O)=CC(O)=C2)C=C1

>  <standard_inchi>  (207) 
InChI=1S/C14H14O3/c15-12-5-3-10(4-6-12)1-2-11-7-13(16)9-14(17)8-11/h3-9,15-17H,1-2H2

>  <standard_inchi_key>  (207) 
HITJFUSPLYBJPE-UHFFFAOYSA-N

>  <name>  (207) 
Dihydroresveratrol

>  <iupac_name>  (207) 
5-[2-(4-hydroxyphenyl)ethyl]benzene-1,3-diol

>  <annotation_level>  (207) 
5

>  <total_atom_count>  (207) 
31

>  <heavy_atom_count>  (207) 
17

>  <molecular_weight>  (207) 
230.26

>  <exact_molecular_weight>  (207) 
230.09429

>  <molecular_formula>  (207) 
C14H14O3

>  <alogp>  (207) 
2.59

>  <topological_polar_surface_area>  (207) 
60.69

>  <rotatable_bond_count>  (207) 
3

>  <hydrogen_bond_acceptors>  (207) 
3

>  <hydrogen_bond_donors>  (207) 
3

>  <hydrogen_bond_acceptors_lipinski>  (207) 
3

>  <hydrogen_bond_donors_lipinski>  (207) 
3

>  <lipinski_rule_of_five_violations>  (207) 
0

>  <aromatic_rings_count>  (207) 
2

>  <qed_drug_likeliness>  (207) 
0.76

>  <formal_charge>  (207) 
0

>  <fractioncsp3>  (207) 
0.14

>  <number_of_minimal_rings>  (207) 
2

>  <van_der_walls_volume>  (207) 
213.79

>  <contains_sugar>  (207) 
False

>  <contains_ring_sugars>  (207) 
False

>  <contains_linear_sugars>  (207) 
False

>  <murcko_framework>  (207) 
c1ccc(cc1)CCc2ccccc2

>  <np_likeness>  (207) 
0.70

>  <chemical_class>  (207) 
Stilbenes

>  <chemical_sub_class>  (207) 
Stilbenes

>  <chemical_super_class>  (207) 
Phenylpropanoids and polyketides

>  <direct_parent_classification>  (207) 
Stilbenes

>  <np_classifier_pathway>  (207) 
Shikimates and Phenylpropanoids

>  <np_classifier_superclass>  (207) 
Stilbenoids

>  <np_classifier_class>  (207) 
Monomeric stilbenes

>  <np_classifier_is_glycoside>  (207) 
False

>  <organisms>  (207) 
Agrimonia pilosa var. japonica|Bulbophyllum triste|Cannabis sativa|Dendrobium candidum|Dendrobium chrysanthum|Dendrobium chrysotoxum|Dendrobium fimbriatum|Dendrobium loddigesii|Dendrobium nobile|Dioscorea bulbifera|Dioscorea dumetorum|Epidendrum rigidum|Morus sp.|Morus spp.|Pistacia chinensis|Prunus amygdalus|Prunus dulcis|Rheum undulatum|Rhododendron dauricum|Rhododendron mucronatum|Rhododendron mucronulatum|Smilax glabra

>  <collections>  (207) 
BIOFACQUIM|CMAUP (cCollective molecular activities of useful plants)|ChEBI NPs|ChemSpider NPs|ConMedNP|DrugBankNP|ETM (Ethiopian Traditional Medicine) DB|Exposome-explorer|FooDB|KNApSaCK|Latin America dataset|NPASS|NPEdia|Phenol-explorer|Phyto4Health|Super Natural II|TCMDB-Taiwan (Traditional Chinese Medicine database)|TCMID (Traditional Chinese Medicine Integrated Database)|TIPdb (database of Taiwan indigenous plants)|UNPD (Universal Natural Products Database)|VietHerb|ZINC NP

>  <dois>  (207) 
10.1016/s0960-894x(99)00702-7|10.1021/jf0508044|10.1021/np50031a011

>  <synonyms>  (207) 
58436-28-5|5-2-(4-hydroxyphenyl)ethylbenzene-1|3-diol|3|4'|5-Trihydroxybibenzyl|CBY43AY0TT|CHEBI:4582|CHEMBL111234|ButanaMide| 4-aMino-N-ethyl-| Monohydrochloride|1|3-Benzenediol| 5-(2-(4-hydroxyphenyl)ethyl)-|MFCD25973128|151363-17-6|Dihydro-Resveratrol|a| b-Dihydroresveratrol|5-(2-(4-HYDROXYPHENYL)ETHYL)BENZENE-1|3-DIOL|3ftu|RE2|UNII-CBY43AY0TT|3|5|4'-trihydroxybibenzyl|alpha|beta-Dihydroresveratrol|SCHEMBL716856|DTXSID60973983|HY-N3755|BDBM50085531|LMPK13090035|NSC723534|s6927|AKOS030555676|DB08466|4-(2-(3|5-Dihydroxyphenyl)ethyl)phenol|BS-17153|DA-38145|SY232649|CS-0024161|NS00068421|alpha|beta-dihydro-3|40|5-trihydroxystilbene|Q5276414

>  <cas>  (207) 
58436-28-5|151363-17-6

$$$$

     RDKit          2D

 20 22  0  0  0  0  0  0  0  0999 V2000
   -5.0309    1.9289    0.0000 C   0  0  0  0  0  0  0  0  0  0  0  0
   -4.4283    0.5553    0.0000 O   0  0  0  0  0  0  0  0  0  0  0  0
   -2.9374    0.3903    0.0000 C   0  0  0  0  0  0  0  0  0  0  0  0
   -2.0491    1.5990    0.0000 C   0  0  0  0  0  0  0  0  0  0  0  0
   -0.5582    1.4341    0.0000 C   0  0  0  0  0  0  0  0  0  0  0  0
    0.0444    0.0604    0.0000 C   0  0  0  0  0  0  0  0  0  0  0  0
    1.5353   -0.1045    0.0000 C   0  0  0  0  0  0  0  0  0  0  0  0
    2.1379   -1.4782    0.0000 C   0  0  0  0  0  0  0  0  0  0  0  0
    3.6288   -1.6431    0.0000 C   0  0  0  0  0  0  0  0  0  0  0  0
    4.5171   -0.4344    0.0000 C   0  0  0  0  0  0  0  0  0  0  0  0
    6.0080   -0.5994    0.0000 O   0  0  0  0  0  0  0  0  0  0  0  0
    3.9145    0.9392    0.0000 C   0  0  0  0  0  0  0  0  0  0  0  0
    2.4236    1.1042    0.0000 C   0  0  0  0  0  0  0  0  0  0  0  0
    1.8210    2.4778    0.0000 C   0  0  0  0  0  0  0  0  0  0  0  0
    0.3301    2.6428    0.0000 C   0  0  0  0  0  0  0  0  0  0  0  0
   -0.8439   -1.1482    0.0000 C   0  0  0  0  0  0  0  0  0  0  0  0
   -0.2413   -2.5219    0.0000 O   0  0  0  0  0  0  0  0  0  0  0  0
   -2.3348   -0.9833    0.0000 C   0  0  0  0  0  0  0  0  0  0  0  0
   -3.2231   -2.1920    0.0000 O   0  0  0  0  0  0  0  0  0  0  0  0
   -4.7140   -2.0270    0.0000 C   0  0  0  0  0  0  0  0  0  0  0  0
  1  2  1  0
  2  3  1  0
  3  4  2  0
  4  5  1  0
  5  6  2  0
  6  7  1  0
  7  8  2  0
  8  9  1  0
  9 10  2  0
 10 11  1  0
 10 12  1  0
 12 13  2  0
 13 14  1  0
 14 15  1  0
  6 16  1  0
 16 17  1  0
 16 18  2  0
 18 19  1  0
 19 20  1  0
 18  3  1  0
 15  5  1  0
 13  7  1  0
M  END
>  <identifier>  (208) 
CNP0139778.0

>  <canonical_smiles>  (208) 
COC1=CC2=C(C3=CC=C(O)C=C3CC2)C(O)=C1OC

>  <standard_inchi>  (208) 
InChI=1S/C16H16O4/c1-19-13-8-10-4-3-9-7-11(17)5-6-12(9)14(10)15(18)16(13)20-2/h5-8,17-18H,3-4H2,1-2H3

>  <standard_inchi_key>  (208) 
AUIUZJOPXKYLOS-UHFFFAOYSA-N

>  <name>  (208) 
ephemeranthol A

>  <iupac_name>  (208) 
6,7-dimethoxy-9,10-dihydrophenanthrene-2,5-diol

>  <annotation_level>  (208) 
5

>  <total_atom_count>  (208) 
36

>  <heavy_atom_count>  (208) 
20

>  <molecular_weight>  (208) 
272.3

>  <exact_molecular_weight>  (208) 
272.10486

>  <molecular_formula>  (208) 
C16H16O4

>  <alogp>  (208) 
2.88

>  <topological_polar_surface_area>  (208) 
58.92

>  <rotatable_bond_count>  (208) 
2

>  <hydrogen_bond_acceptors>  (208) 
4

>  <hydrogen_bond_donors>  (208) 
2

>  <hydrogen_bond_acceptors_lipinski>  (208) 
4

>  <hydrogen_bond_donors_lipinski>  (208) 
2

>  <lipinski_rule_of_five_violations>  (208) 
0

>  <aromatic_rings_count>  (208) 
2

>  <qed_drug_likeliness>  (208) 
0.88

>  <formal_charge>  (208) 
0

>  <fractioncsp3>  (208) 
0.25

>  <number_of_minimal_rings>  (208) 
3

>  <van_der_walls_volume>  (208) 
242.96

>  <contains_sugar>  (208) 
False

>  <contains_ring_sugars>  (208) 
False

>  <contains_linear_sugars>  (208) 
False

>  <murcko_framework>  (208) 
c1ccc2c(c1)-c3ccccc3CC2

>  <np_likeness>  (208) 
1.42

>  <chemical_class>  (208) 
Phenanthrenes and derivatives

>  <chemical_sub_class>  (208) 
Phenanthrenes and derivatives

>  <chemical_super_class>  (208) 
Benzenoids

>  <direct_parent_classification>  (208) 
Phenanthrenes and derivatives

>  <np_classifier_pathway>  (208) 
Shikimates and Phenylpropanoids

>  <np_classifier_superclass>  (208) 
Phenanthrenoids

>  <np_classifier_class>  (208) 
Phenanthrenes

>  <np_classifier_is_glycoside>  (208) 
False

>  <organisms>  (208) 
Callophycus serratus|Corydalis conspersa|Dendrobium nobile|Ephemerantha lonchophylla HOOK.f.P.F.HUNT et SUMMERH|Epidendrum rigidum|Gynochthodes parvifolia|Ligustrum ovalifolium|Mespilus germanica|Mikania luetzelburgii|Pittosporum brevicalyx|Sideritis grandiflora|Solanum euacanthum|Ungernia victoris

>  <collections>  (208) 
BIOFACQUIM|CMAUP (cCollective molecular activities of useful plants)|KNApSaCK|Latin America dataset|NPASS|Phyto4Health|Super Natural II|TCMID (Traditional Chinese Medicine Integrated Database)|UNPD (Universal Natural Products Database)

>  <dois>  (208) 
10.1021/jf0508044

>  <synonyms>  (208) 
CHEMBL400926|2|3-dimethoxy-9|10-dihydrophenanthrene-4|7-diol|Ephemeranthol A

>  <cas>  (208) 
nan

$$$$

     RDKit          2D

 20 22  0  0  0  0  0  0  0  0999 V2000
    1.7994   -3.1938    0.0000 O   0  0  0  0  0  0  0  0  0  0  0  0
    1.2309   -1.8057    0.0000 C   0  0  0  0  0  0  0  0  0  0  0  0
   -0.2555   -1.6040    0.0000 C   0  0  0  0  0  0  0  0  0  0  0  0
   -0.8240   -0.2159    0.0000 C   0  0  0  0  0  0  0  0  0  0  0  0
   -2.3104   -0.0142    0.0000 C   0  0  0  0  0  0  0  0  0  0  0  0
   -2.8789    1.3738    0.0000 C   0  0  0  0  0  0  0  0  0  0  0  0
   -4.3653    1.5755    0.0000 C   0  0  0  0  0  0  0  0  0  0  0  0
   -5.2832    0.3891    0.0000 C   0  0  0  0  0  0  0  0  0  0  0  0
   -6.7695    0.5908    0.0000 O   0  0  0  0  0  0  0  0  0  0  0  0
   -4.7146   -0.9989    0.0000 C   0  0  0  0  0  0  0  0  0  0  0  0
   -3.2282   -1.2006    0.0000 C   0  0  0  0  0  0  0  0  0  0  0  0
    0.0938    0.9705    0.0000 O   0  0  0  0  0  0  0  0  0  0  0  0
    1.5802    0.7688    0.0000 C   0  0  0  0  0  0  0  0  0  0  0  0
    2.4981    1.9552    0.0000 C   0  0  0  0  0  0  0  0  0  0  0  0
    3.9845    1.7535    0.0000 C   0  0  0  0  0  0  0  0  0  0  0  0
    4.9023    2.9399    0.0000 O   0  0  0  0  0  0  0  0  0  0  0  0
    4.5530    0.3654    0.0000 C   0  0  0  0  0  0  0  0  0  0  0  0
    3.6351   -0.8210    0.0000 C   0  0  0  0  0  0  0  0  0  0  0  0
    4.2036   -2.2091    0.0000 O   0  0  0  0  0  0  0  0  0  0  0  0
    2.1487   -0.6193    0.0000 C   0  0  0  0  0  0  0  0  0  0  0  0
  1  2  2  0
  2  3  1  0
  3  4  2  0
  4  5  1  0
  5  6  2  0
  6  7  1  0
  7  8  2  0
  8  9  1  0
  8 10  1  0
 10 11  2  0
  4 12  1  0
 12 13  1  0
 13 14  2  0
 14 15  1  0
 15 16  1  0
 15 17  2  0
 17 18  1  0
 18 19  1  0
 18 20  2  0
 20  2  1  0
 11  5  1  0
 20 13  1  0
M  END
>  <identifier>  (209) 
CNP0251015.0

>  <canonical_smiles>  (209) 
O=C1C=C(C2=CC=C(O)C=C2)OC2=CC(O)=CC(O)=C12

>  <standard_inchi>  (209) 
InChI=1S/C15H10O5/c16-9-3-1-8(2-4-9)13-7-12(19)15-11(18)5-10(17)6-14(15)20-13/h1-7,16-18H

>  <standard_inchi_key>  (209) 
KZNIFHPLKGYRTM-UHFFFAOYSA-N

>  <name>  (209) 
apigenin

>  <iupac_name>  (209) 
5,7-dihydroxy-2-(4-hydroxyphenyl)chromen-4-one

>  <annotation_level>  (209) 
5

>  <total_atom_count>  (209) 
30

>  <heavy_atom_count>  (209) 
20

>  <molecular_weight>  (209) 
270.24

>  <exact_molecular_weight>  (209) 
270.05282

>  <molecular_formula>  (209) 
C15H10O5

>  <alogp>  (209) 
2.58

>  <topological_polar_surface_area>  (209) 
90.90

>  <rotatable_bond_count>  (209) 
1

>  <hydrogen_bond_acceptors>  (209) 
5

>  <hydrogen_bond_donors>  (209) 
3

>  <hydrogen_bond_acceptors_lipinski>  (209) 
5

>  <hydrogen_bond_donors_lipinski>  (209) 
3

>  <lipinski_rule_of_five_violations>  (209) 
0

>  <aromatic_rings_count>  (209) 
3

>  <qed_drug_likeliness>  (209) 
0.63

>  <formal_charge>  (209) 
0

>  <fractioncsp3>  (209) 
0.00

>  <number_of_minimal_rings>  (209) 
3

>  <van_der_walls_volume>  (209) 
222.35

>  <contains_sugar>  (209) 
False

>  <contains_ring_sugars>  (209) 
False

>  <contains_linear_sugars>  (209) 
False

>  <murcko_framework>  (209) 
O1c2ccccc2CC=C1c3ccccc3

>  <np_likeness>  (209) 
1.36

>  <chemical_class>  (209) 
Flavonoids

>  <chemical_sub_class>  (209) 
Hydroxyflavonoids

>  <chemical_super_class>  (209) 
Phenylpropanoids and polyketides

>  <direct_parent_classification>  (209) 
5-hydroxyflavonoids

>  <np_classifier_pathway>  (209) 
Shikimates and Phenylpropanoids

>  <np_classifier_superclass>  (209) 
Flavonoids

>  <np_classifier_class>  (209) 
Flavones

>  <np_classifier_is_glycoside>  (209) 
False

>  <organisms>  (209) 
A new engineered strain of Escherichia coli [MetJ]|Aaptos ciliata|Abelia chinensis|Abies excelsa|Abies pinsapo var. marocana|Abies veitchii|Acacia aroma|Acanthus ilicifolius|Acer carpinifolium|Acer pycnanthum|Acer triflorum|Achillea atrata L.ssp.multifida|Achillea atrata subsp. multifida|Achillea biebersteinii|Achillea clavennae|Achillea millefolium|Achillea nana|Achlya heterosexualis|Acia oblonga|Aconitum kirinense|Aconitum leucostomum|Aconitum napellus|Aconitum seravschanicum|Aconitum tasiromontanum|Acrisione denticulata|Acrocarpia paniculata|Actinoplanes awajinensis|Actinopyga echinites|Adansonia grandidieri|Adenia globosa|Adenia volkensii|Adina sessilifolia|Aechmea glomerata|Agarum cribrosum|Agastache rugosa|Agave salmiana|Aglaia elliptica|Aglaia formosana|Aglaia grandis|Agrimonia pilosa|Ainsliaea macrocephala|Ajuga decumbens|Alangium longiflorum|Alangium ridleyi|Albizia Julibrissin|Allium cepa|Allium fistulosum|Aloe africana|Aloe ferox|Aloe nobilis|Aloe spicata|Aloe vera|Alpinia officinarum|Alternaria kikuchiana|Alternaria macrospora|Amberboa ramosa|Ampelocera edentula|Amyris texana|Anaphalis araneosa|Anarsia lineatella|Andrographis paniculata|Andropogon jwarancusa|Angelica acutiloba|Angelica lucida|Angylocalyx braunii|Anisomeles indica|Anodendron affine|Anthemis altissima|Anthemis auriculata|Anthemis pseudocotula|Anthomastus bathyproctus|Antirrhinum spp.|Aphis graminum|Aphis pini|Aphis sambuci|Aphyllocladus denticulatus|Apis mellifera|Apis mellifera ligustica|Apium graveolens|Apium graveolens L.|Aplophyllum alberti-regelii|Aplysia vaccaria|Apollonias barbujana|Aquilegia ecalcarata|Archidendron ellipticum|Archidendron lucidum|Arenaria kumaonensis|Arnica mollis|Aronia arbutifolia|Artabotrys uncinatus|Artemisia annua L.|Artemisia apiacea|Artemisia argyi|Artemisia hanseniana|Artemisia klotzchiana|Artemisia kurramensis|Artemisia lactiflora|Artemisia ludoviciana subsp. mexicana|Artemisia minor|Artemisia montana|Artemisia princeps|Artemisia rehan|Artemisia vestita|Arthrobotrys oligospora|Arum maximum|Arundina chinensis|Asimina parviflora|Aspergillus desertorum|Aspergillus fumisynnematus|Aspergillus phoenicis|Asphodeline globifera|Aspicilia caesiocinerea|Aster sedifolius|Astragalus bisulcatus|Astragalus lagurus|Astragalus membranaceus|Astragalus mongholicus|Athrotaxis selaginoides|Atraphaxis spinosa|Attalea excelsa|Aulosira fertilissima|Avrainvillea longicaulis|Axinyssa variabilis|Baccharis angustifolia|Baccharis dracunculifolia|Baccharis gaudichaudiana|Baccharis neglecta|Baccharis thesioides|Baccharis trimera|Baccharoides lasiopus|Bacopa monniera|Ballota limbata|Ballota rupestris|Barleria acanthoides|Bassia muricata|Bellis perennis|Berberis orthobotrys|Betonica officinalis|Betula nigra|Beyeria latifolia|Bhesa nitidissima|Biancaea decapetala|Bidens pilosa|Bidens tripartita|Biebersteinia orphanidis|Bitis gabonica|Blandfordia punicea|Blepharis sindica|Bletilla formosana|Blighia laurentii|Blumea densiflora|Blumea eriantha|Blumea mollis|Boehmeria nivea|Boenninghausenia albiflora|Boletus fomentarius|Bonnetia dinizii|Boronia ternata|Boswellia carterii|Bothriocline ripensis|Botrytis cinerea|Brachychiton populneum|Brachyglottis bidwillii|Brassica carinata|Brassica napus|Brassica oleracea|Brassica oleracea var. sabauda|Brassica rapa|Brassica rapa subsp. chinensis|Breea segeta|Breonia chinensis|Brya ebenus|Bryonia alba|Bryum argenteum|Bryum weigelii|Buddleja officinalis|Bugula dentata|Bulbine capitata|Bulbinella floribunda|Bunias orientalis|Buxus hyrcana|Buxus microphylla|Cadia purpurea|Caesalpinia crista|Caesalpinia tinctoria|Calceolaria petiolaris|Calea lantanoides|Calea urticifolia|Calicotome villosa|Calliandra eriophylla|Callicarpa japonica|Calophyllum pinetorum|Calycanthus floridus|Calycotome villosa|Camchaya loloana|Campsis grandiflora|Campylotropis hirtella|Candida albicans|Capparis himalayensis|Capsicum annuum|Carpha glomerata|Caryocar villosum|Casearia ilicifolia|Casearia membranacea|Castanea vesca|Castanopsis eyrei|Catalpa ovata|Catananche caerulea|Catunaregam tomentosa|Caulocystis cephalornithos|Ceanothus velutinus|Cedrela salvadorensis|Centaurea maculosa|Centaurea sp.|Centella asiatica|Centipedaminima|Cephalaria ambrosioides|Cephalotaxus fortunei|Cephalotaxus koreana|Cephalotaxus wilsoniana|Ceriops decandra|Ceropegia dichotoma|Chamaecyparis pisifera|Chamomilla recutita|Chamomilla recutita (L.) Rauschert|Chavica betle|Cheilanthes bullosa|Chiton tuberculatus|Chlorociboria aeruginascens|Chlorophytum borivilianum|Chondrilla nucula|Chondrococcus hornemanni|Chondrodendron tomentosum|Choriaster granulatus|Chromolaena odorata|Chroogomphus helveticus|Chrysanthemum boreale|Chrysanthemum cineraiaefolium|Chrysanthemum indicum|Chrysanthemum morifolium|Chrysanthemum sinense|Chrysanthemum uliginosum|Chrysanthemum x morifolium|Chrysocoma peduncularis|Chrysomela tremula|Chrysosporum ovalisporum|Chrysothamnus nauseosus|Chrysotila lamellosa|Cibotium barometz|Cichorium intybus|Cinnamomum kotoense|Cipadessa fruticosa|Cirsium arvense|Cirsium japonicum|Cirsium japonicum var. australe|Cirsium setosum|Cirsium wallichii|Cis punctifer|Citrullus lanatus|Citrus aurantium|Citrus hassaku|Citrus maxima|Cladogynos orientalis|Cladonia impexa|Cladosporium cucumerinum|Cladrastis platycarpa|Clathria basilana|Clathrotropis brachypetala|Cleistopholis staudtii|Clerodendrum bungei|Clibadium mexiae|Climacoptera transoxana|Clione antarctica|Clostridium butyricum|Cnidium officinale|Cochlospermum gillivraei|Codium dwarkense|Colchicum robustum|Colladonia triquetra|Colletotrichum gloeosporioides|Coniochaeta saccardoi|Conospermum teretifolium|Conus mus|Conyza japonica|Coprinopsis atramentaria|Coprosma areolata|Corallina rubens|Cordia elaeagnoides|Cordia leucocephala|Coronilla cretica|Cortinarius orellanus|Corydalis calliantha|Corydalis taliensis|Corydalis thalictrifolia|Corynascus setosus|Cotula cinerea|Coutarea latifolia|Craibiodendron henryi|Crataegus tanacetifolia|Cratoxylum formosum|Crepidiastrum sonchifolium|Crinum moorei|Crocus sativus|Crotalaria assamica|Crotalaria candicans|Crotalaria pallida|Crotalus atrox|Croton cascarilloides|Croton gratissimus|Crudia amazonica|Cucumis myriocarpus|Cucumis sativus|Cucurbita moschata|Cudrania tricuspidata|Cuscuta australis|Cuscuta chinensis|Cyanostegia angustifolia|Cylindrospermum muscicola|Cymbastela coralliophila|Cynara cardunculus var. scolymus|Cyperus scariosus|Cyphus niveus|Cystoclonium purpureum|Cytisus ratisbonensis|Cytophaga hutchinsoni|Dacryodes normandii|Dactylorhiza viridis|Dalbergia ecastaphyllum|Dalbergia nigra|Dalea elegans|Dalea purpurea|Daphne feddei|Daphne genkwa|Daphne genkwa Sieb.et Zucc.|Daphne oleoides|Daphne sericea|Daphniphyllum paxianum|Delphinium brownii|Delphinus globiceps|Deltocyathus magnificus|Dendriopoterium menendezii|Dendroaspis angusticeps|Dendrobium candidum|Dendrobium loddigesii|Dendronephthya griffini|Desmodium styracifolium|Dichilus reflexus|Dicoma anomala|Dicranopteris linearis|Dictyopteris australis|Dictyostelium mucoroides|Didemnum solidum|Dioscorea gracillima|Dioscorea tokoro|Diospyros assimilis|Diplazium esculentum|Diplodia natalensis|Diplopterygium glaucum|Dipsacus asper|Dipterocarpus dyeri|Dipteryx odorata|Discaria serratifolia|Distephanus angulifolius|Dodonaea viscosa|Dolabella californica|Dolichospermum viguieri|Drimia sanguinea|Drosera indica|Drummondita hassellii|Dryocosmus kuriphilus|Duguetia calycina|Dysidea tupha|Dysosma pleianthum|Dysoxylum cumingianum|Dytiscus marginalis|Echinacea pallida|Echinop ritro|Echium rubrum|Eclipta prostrata|Ehretia ovalifolia|Eichhornia crassipes|Elaeodendron alluaudianum|Elephantopus hirtiflorus|Elsholtzia bodinieri|Elsholtzia ciliata|Embelia parviflora|Embelia schimperi|Enceliopsis argophylla|Engleromyces goetzei|Enrichment culture|Entada africana|Entada phaseoloides|Entada polystachya|Enterococcus faecalis|Ephedra distachya|Ephedra sinica|Epichloe festucae var. lolii|Epidendrum rigidum|Epilobium hirsutum|Epimedium acuminatum|Epimedium brevicornum|Epimedium davidii|Epimedium dolichostemen|Epimedium fargesii|Epimedium franchetii|Epimedium koreanum|Epimedium leishanense|Epimedium leptorrhizum|Epimedium membranaceum|Epimedium myrianthum|Epimedium pauciflorum|Epimedium pubescens|Epimedium sagittatum|Epimedium stellatum|Epimedium wushanense|Epimedium zhenbaense|Epimedium zhushanense|Epirrhoe sperryi|Episcia cupreata|Equisetum hyemale|Eremanthus seidelii|Eria anomala|Eria japonica|Eria mollis|Erigeron annuus|Erigeron breviscapus|Eriocephalus scariosus|Eriocheir sinensis|Erioderma tomentosum|Eriostemon spicatus|Erysimum leptophyllum|Erysimum siliculosum|Erythrina melanacantha|Esenbeckia leiocarpa|Espeletia lutescens|Etlingera elatior|Eucalyptus apodophylla|Eucalyptus decorticans|Eucalyptus globulus subsp. bicostata|Eucalyptus resinifera|Euodia lunu-ankenda|Euonymus alatus|Euonymus grandiflorus|Euonymus laxiflorus|Eupatorium leucolepis|Euphorbia amygdaloides|Euphorbia clarkeana|Euphorbia formosana|Euphorbia humifusa|Euphorbia maculata|Euphorbia nematocypha|Euphorbia sapinii|Euphorbia sieboldiana|Euphrasia genargentea|Euphrasia stricta|Eurycoma harmandiana|Euryops rupestris|Evernia vulpina|Exostema mexicanum|Fagara chiloperone|Fagara naranjillo|Fallopia multiflora|Faramea salicifolia|Farlowia mollis|Ficus formosana|Ficus hirta|Ficus mucuso|Flacourtia jangomas|Flindersia xanthoxyla|Fragaria vesca|Fragaria x ananassa|Fritillaria cirrhosa|Fritillaria thunbergii|Fuligo candida|Fumaria indica|Gadus morhua callarias|Gaillardia aristata Pursh.|Galeopsis tetrahit|Galium dasypodum|Galium mollugo|Gambierdiscus toxicus|Ganoderma lucidum|Garcinia cambogia|Garcinia dulcis|Garcinia pyrifera|Garcinia scortechinii|Gardenia imperialis|Gardenia tubifera|Gastrophysa cyanea|Genista ephedroides|Gibberella lateritium|Ginkgo biloba|Glaucium vitellinum|Glechoma grandis|Glechoma longituba|Gleditsia horrida|Globularia davisiana|Glochidion philippicum|Glycine max|Glycosmis macrophylla|Glycosmis ovoidea|Glycyrrhiza echinata|Glycyrrhiza uralensis|Gmelina asiatica|Gnaphalium affine|Gomesa radicans|Greenwayodendron oliveri|Grewia rothii|Grindelia scorzonerifolia|Gymnocalycium schickendantzii|Gymnocolea inflata|Gypsophila perfoliata|Haliclona cribricutis|Halobacillus litoralis|Halophila johnsonii|Haplophyllum obtusifolium|Hedysarum denticulatum|Helichrysum cephaloideum|Helichrysum graveolen|Helichrysum lepidissimum|Helichrysum nitens|Helichrysum tenuifolium|Heliotropium hirsutissimum|Helleborus multifidus|Hemionitis japonica|Hendersonula toruloidea|Hertia cheirifolia|Hesperis matronalis|Heterocentrotus mammillatus|Heterochordaria abietina|Hexalobus crispiflorus|Hibiscus sabdariffa|Himalaiella deltoidea|Holarrhena febrifuga|Homo sapiens|Hopea utilis|Hoya carnosa|Humulus japonicus|Humulus scandens|Hydnocarpus setumpul|Hydrocotyle ranunculoides|Hygrophila erecta|Hymenidium lindleyanum|Hymenocallis arenicola|Hymenothrix wislizenii|Hymenoxys insignis|Hypericum balearicum|Hypericum carinatum|Hypericum henryi|Hypericum polyanthemum|Hypericum reflexum|Hypericum revolutum|Hypericum styphelioides|Hyssopus officinalis|Iberis sempervirens|Ibicella lutea|Iboza riparia|Ideopsis similis|Ilex brevicuspis|Ilyonectria destructans|Impatiens edgeworthii|Impatiens siculifer|Indigofera tetrantha|Indo-Pacific sponge (Unclassified)|Inocybe geophylla|Inulanthera calva|Ipomoea aquatica|Ipomoea cairica|Ipomoea muricata|Iris pallasii|Isaria fumosorosea|Isodon coetsa|Isodon leucophyllus|Isodon lophanthoides|Ixeris debilis|Jacaranda chelonia|Jackiella javanica|Jasonia candicans|Jatropha macrorhiza|Juniperus drupacea|Justicia ciliata|Justicia hayatai|Justicia secunda|Kaempferia rotunda|Kalmia angustifolia|Kalmia latifolia|Kloeckera brevis|Kniphofia pumila|Koelreuteria henryi|Kopsia albiflora|Kopsia grandifolia|Kopsia hainanensis|Kummerowia striata|Lactarius sanguifluus|Lactarius spinosulus|Lactuca indica|Lactuca sativa|Laennecia sophiifolia (Kunth) G.L.Nesom|Laetia corymbulosa|Laggera pterodonta|Lagotis brevituba|Larrea divaricata|Larrea tridentata|Lasianthus fordii|Latrunculia magnifica|Laurencia composita|Laurencia thyrsifera|Lavandula vera|Lecanicillium muscarium|Ledebouria floribunda|Ledebouria socialis|Leiothrix curvifolia|Lemaireocereus longispinus|Lentinus tigrinus|Leonurus heterophyllus|Lepidium graminifolium|Lespedeza bicolor|Lespedeza virgata|Leucas aspera|Leucopaxillus cerealis|Leucophyllum ambiguum|Leuzea centauroides|Libocedrus formosana|Licaria chrysophylla|Ligularia cymbulifera|Ligularia songarica|Ligusticum sinense|Ligustrum lucidum|Lilium umbellatum|Limonium sinense|Liriodendron tulipifera|Litsea salicifolia|Litsea verticillata|Littorina littorea|Lobelia chinensis|Lobophytum durum|Lobophytum laevigatum|Lomatium nuttallii|Lomelosia caucasica|Lonchocarpus atropurpureus|Lonicera japonica|Luculia pinceana|Luma chequen|Lychnis flos-cuculi L.|Lychnophora salicifolia|Lycium barbarum|Lycium chinense|Lycogala epidendrum|Lycopodium contiguum|Lycopus europaeus|Lycopus lucidus|Lysimachia christinae|Lysimachia fordiana|Lythrum salicaria|Macfadyena cynanchoides|Magnolia montana|Maianthemum atropurpureum|Malagasy connaraceous|Mallotus discolor|Malus baccata|Mangifera indica|Marasmiellus troyanus|Marine actinobacterium|Markhamia stipulata|Marrubium globosum|Marrubium velutinum|Marrubium vulgare|Martensia denticulata|Maytenus chuchuhuasha|Melandrium album|Menisporopsis theobromae|Mentha aquatica|Mentha aquatica L.|Mentha arvensis|Mentha canadensis|Mentha cardiaca|Mentha pulegium|Mentha spicata|Mentha x piperita|Meridiastra calcar|Mesembryanthemum expansum|Mexican propolis|Microtoena prainiana|Miliusa velutina|Millettia zechiana|Mimosa hostilis|Mimusops caffra|Mitracarpus scaber|Mollugo spergula|Monascus pilosus|Monomeria barbata|Monsonia senegalensis|Morella rubra|Mosla chinensis|Mulguraea tridens|Mundulea striata|Mus striatus|Mycena fagetorum|Myoporum platycarpum|Myrsine capitellata|Myrtopsis novae-caledoniae|Myxococcus stipitatus|Narthecium asiaticum|Nasturtium officinale|Nectandra rubra|Nematolepis phebalioides|Neobalanocarpus heimii|Neopetrosia exigua|Nepeta cataria|Nerine bowdenii|Newbouldia laevis|Nicotiana affinis|Nicotiana raimondii|Notholaena candida|Ocimum americanum L.var.pilosum (Willd.) Paton|Ocimum gratissimum|Ocimum kilimandscharicum L.|Ocimum minimum L.|Ocimum sanctum|Ocimum tenuiflorum L.|Ocimum x citriodorum Vis.|Odontocline hollickii|Oenanthe pimpinelloides|Olea europaea|Ongokea gore|Onobrychis arenaria|Ononis spinosa|Onopordum acanthium|Onosma hispida|Oophaga pumilio|Ophiocordyceps sinensis|Ophryosporus floribundus|Oreopteris quelpaertensis|Origanum majorana|Origanum vulgare|Origanum x majoricum|Ormosia hosiei|Ornithogalum tenuifolium|Ornithoglossum viride|Ornithopus sativus|Oroxylum indicum|Orthosiphon spicatus|Osmorhiza aristata|Osteospermum fruticosum|Othonna coronopifolia|Othonna sedifolia|Oxytropis falcata|Pachyrhizus tuberosus|Paeonia lactiflora|Paeonia rockii|Paeonia suffruticosa|Pajanelia multijuga|Palaquium canaliculatum|Panax innovans|Pancratium sickenbergeri|Panda oleosa|Pangium edule|Panzeria canescens|Papaver strigosum|Paraburkholderia caryophylli|Paracoccus denitrificans|Parnassius phoebus|Passiflora edulis|Passiflora foetida|Pastinaca sativa|Patrinia scabiosifolia|Patrinia villosa|Paulownia tomentosa|Payena lucida|Pecten islandicus|Penicillium cinerascens|Penicillium herquei|Penicillium meleagrinum|Penicillium puberulum|Pentaclethra macrophylla|Perilla frutescens|Periploca sepium|Perknaster fuscus|Persea mexicana|Pertusaria truncata|Petasites laevigatus|Petroselinum crispum|Petrosimonia monandra|Phalaris canariensis|Phebalium ambiens|Phebalium whitei|Phellinus igniarius|Philotheca myoporoides|Phlojodicarpus sibiricus|Phlomis nissolii|Phlomoides rotata|Phoma medicaginis|Phomopsis leptostromiformis|Phora velutina|Phyllanthus discoides|Phyllanthus emblica|Phyllanthus virgatus|Physalis alkekengi|Physalis sordida|Physocarpus capitatus|Phytolacca thyrsiflora|Picris cyanocarpa|Picris kamtschatica|Pinus flexilis|Pinus mugo|Piper regnellii|Pisaster giganteus|Pistacia vera|Pisum sativum|Pithecellobium racemosum|Pityrogramma ebenea|Planchonia grandis|Plantago cornuti|Plantago depressa|Plantago major|Plathymenia reticulata|Plectranthus forsteri|Plectranthus myrianthus|Plectranthus nummularius|Plectranthus sylvestris|Pluchea chingoyo|Plumbagella micrantha|Plumbago zeylanica|Pocillopora eydouxi|Podocarpus fasciculus|Pogostemon cablin|Polyalthia acuminata|Polygala arillata|Polygonum cuspidatum|Polygonum mite|Polypodium decumanum|Polysiphonia urceolata|Polyzonium rosalbum|Porophyllum ruderale|Portulaca oleracea|Procambarus clarkii|Prunus cerasoides|Pseudodistoma arborescens|Pseudomonas mendocina|Pseudonocardia compacta|Pseuduvaria indochinensis|Psilotum nudum|Psychotria serpens|Psychotria stachyoides|Ptelea viscosa|Pteraster multipes|Pteridium aquilinum|Pteridium esculentum|Pteris dactylina|Pteris setuloso-costulata|Pterocarpus officinalis|Pterocaulon polystachyum|Pterocaulon virgatum|Pterolobium hexapetalum|Ptilocaulis walpersi|Punica granatum|Punica granatum L.|Pycnandra acuminata|Pyrenophora lolii|Pyrostegia venusta|Pyrus pyrifolia|Rabdosia loxothyrsa|Rabdosia macrocalyx|Radianthus kuekenthali|Rana amurensis|Ranunculus asiaticus|Ranzania japonica|Raputia praetermissa|Rathayibacter rathayi|Rattus rattus|Raukaua simplex|Relicina samoensis|Remirea maritima|Reseda muricata C.Presl.|Retiboletus ornatipes|Rhabdonia verticillata|Rhapis excelsa|Rhaponticum carthamoides|Rheum tataricum|Rhinella marina|Rhizobium leguminosarum|Rhizoctonia repens|Rhodiola rosea|Rhodiola semenovii|Rhodobacter sphaeroides|Rhodococcus erythropolis|Rhododendron dauricum|Rhus vulgaris|Ribes sanguineum|Riccia fluitans|Rivina humilis|Rivularia firma|Robinsonia gracilis|Roccella fucoides|Roemeria carica|Roldana sessilifolia|Rosa agrestis|Rosa americana|Rosa rugosa|Rosmarinus officinalis|Rothmannia wittii|Rubia tetragona|Rumex nepalensis|Sabadilla officinalis|Sabina chinensis|Saccharomyces cerevisiae SPO810 [aro8 aro10]|Salacia elliptica|Salvia aegyptiaca|Salvia albimaculata|Salvia glutinosa|Salvia hispanica|Salvia horminum|Salvia kopolnovii|Salvia lavandulaefolia|Salvia lavandulifolia|Salvia limbata|Salvia moorcroftiana|Salvia nemorosa|Salvia officinalis|Salvia palaestina|Salvia pedicellata|Salvia pinnata|Salvia pratensis|Salvia sclarea|Salvia sessei|Salvia staminea|Salvia urolepis|Salvia verbenaca|Salvia yosgadensis|Samadera indica|Sanicula epipactis|Santolina chamaecyperissus|Sapindus mukorossi|Sarcophyton buitendijki|Sarcophyton elegans|Saussurea involucrata|Saussurea medusa|Scabiosa succisa|Schizanthus tricolor|Schizonepeta tenuifolia|Schizonepeta tenuisfolia|Schizophyllum lobatum|Schnabelia tetradonta|Schumanniophyton magnificum|Scolopia chinensis|Scoparia dulcis|Scopolia atropoides|Scorzonera divaricata|Scutellaria baicalensis|Scutellaria barbata|Scutellaria discolor|Scutellaria karjagini|Scutellaria orientalis|Scutellaria strigillosa|Sedum obtuso-lineare|Selaginella tamariscina|Senecio adenophyllus|Senecio deltoideus|Senecio heliopsis|Senecio kaempferi|Senecio nemorensis|Senecio sandersonii|Senecio speciosus|Senecio subdentatus|Senegalia mellifera|Sepia officinalis|Sesbania bispinosa|Shigella dysenteriae|Sideritis argosphacelus|Sideritis argosphacelus var. spicata|Sideritis soluta|Sideritis trojana|Siegesbeckia pubescens|Sigesbeckia glabrescens|Simarouba glauca|Sinapis alba|Siphonaria capensis|Skimmia reevesiana|Solanderia secunda|Solanum aculeatissimum|Solanum aculeatum|Solanum chenopodioides|Solanum lanceolatum|Solanum lycopersicum|Solanum melongena|Solanum nigrum|Solanum tuberosum|Solidago flexicaulis|Solidago petiolaris|Solidago serotina|Solidago spathulata|Sonchus arvensis|Sonneratia caseolaris|Sophora flavescens|Sorbaria sorbifolia|Sordaria araneosa|Sorghum bicolor|Sphaeranthus confertifolius|Sphaerella laricina|Sphaeria maculans|Spiraea hypericifolia|Spirodela polyrhiza|Spongia agaricina|Spongia officinalis|Stachys aegyptiaca|Stachys chinensis|Stachyurus himalaicus|Stephania zippeliana|Sterculia foetida|Stereospermum acuminatissimum|Stipa vaseyi|Stiretrus anchorago|Stizolobium deeringianum|Streptomyces cyaneofuscatus|Streptomyces filamentosus|Streptomyces incarnatus|Streptomyces lucensis|Streptomyces matensis|Streptomyces parvulus|Streptomyces purpurogeneiscleroticus|Streptomyces roseoverticillatus|Streptomyces venezuelae|Streptomyces yokosukanensis|Strombus gigas|Strophanthus kombe|Strychnos camptoneura|Strychnos ligustrina|Syzygium polycephaloides|Tabernaemontana divaricata|Talaromyces avellaneus|Talaromyces pinophilus|Talaromyces variabilis|Tanacetum parthenifolium|Tanacetum parthenium (L.) Schulz Bip.|Tanacetum vulgare L.|Taonia australasica|Taraxacum officinale|Taxus drupacea|Taxus wallichiana var. chinensis|Tephrosia egregia|Tephrosia elata|Tephrosia fulvinervis|Tephrosia linearis|Tetrapanax papyrifer|Teucrium lancifolium|Teucrium yemense|Theobroma cacao|Theobroma cacao L.|Theonella conica|Thiocystis gelatinosa|Thunnus orientalis|Thymus quinquecostatus|Thymus serpyllum|Thymus vulgaris|Tinospora crispa|Tinus mamillata|Tolypothrix tenuis|Trachelospermum asiaticum|Trachelospermum jasminoides|Trichocereus peruvianus|Trichoderma vinosum|Trichoderma viride|Tricholoma acerbum|Tricholoma columbetta|Trichomanes reniforme|Trichophyton megnini|Trichophyton mentagrophytes|Trichosanthes kirilowii|Trichosanthes rosthornii|Trichosurus vulpecula|Trididemnum cyanophorum|Triopha carpenteri|Tripterygium regelii|Tristania conferta|Triticum estivum|Trollius chinensis|Trollius europaeus|Tsuga diversifolia|Tsuga heterophylla|Tulipa sylvestris|Typha latifolia|Umbilicaria esculenta|Uncaria sessilifructus|Uncaria sterrophylla|Usnea japonica|Ustilago sphaerogena|Uvaria acuminata|Uvaria cherrevensis|Uvaria scheffleri|Vaccinium ashei|Varthemia iphionoides|Vatica cinerea|Vellozia nanuzae|Vellozia nivea|Venus mercenaria|Verbascum lychnitis|Verbena officinalis|Vernonanthura pinguis|Vernonia anisochaetoides|Vernonia cistifolia|Vernonia fagifolia|Vernonia lanuginosa|Veronica arvensis|Veronica chamaedrys|Veronica kellereri|Veronica persica|Veronica polita|Veronica spicata|Viburnum erubescens|Vicia amoena|Vigna mungo|Vigna unguiculata|Viguiera linearis|Viguiera stenoloba|Vinca minor|Viscaria viscosa|Vismia orientalis|Vitex agnus-castus|Vitex limonifolia|Vitis betulifolia|Vittaria anguste-elongata|Walsura chrysogyne|Wardomyces inflatus|Wedelia scaberrima|Werneria nubigena|Widely distributed in plant|Wikstroemia viridiflora|Xanthorhiza simplicissima|Xylaria cubensis|Xylopia columbiana|Xylosma longifolia|Zaluzania grayana|Zaluzianskya capensis|Zanthoxylum acutifolium|Zanthoxylum ailanthoides|Zanthoxylum arborescens|Zanthoxylum myriacanthum|Zanthoxylum scandens|chinese propolis|microtea debilis

>  <collections>  (209) 
ANPDB|AfroCancer|AfroDB|AnalytiCon Discovery NPs|Australian natural products|BIOFACQUIM|BitterDB|CMAUP (cCollective molecular activities of useful plants)|ChEBI NPs|ChemSpider NPs|ConMedNP|DrugBankNP|EMNPD|ETM (Ethiopian Traditional Medicine) DB|Exposome-explorer|FooDB|GNPS (Global Natural Products Social Molecular Networking)|HIM (Herbal Ingredients in-vivo Metabolism database)|HIT (Herbal Ingredients Targets)|InPACdb|InflamNat|KNApSaCK|Latin America dataset|Mitishamba database|NANPDB (Natural Products from Northern African Sources)|NPACT|NPASS|NPCARE|NPEdia|NuBBEDB|Phenol-explorer|Phyto4Health|PubChem NPs|ReSpect|SANCDB|StreptomeDB|Super Natural II|TCMDB-Taiwan (Traditional Chinese Medicine database)|TCMID (Traditional Chinese Medicine Integrated Database)|TIPdb (database of Taiwan indigenous plants)|TPPT (Toxic Plants–PhytoToxins)|UNPD (Universal Natural Products Database)|VietHerb|Watermelon|ZINC NP|p-ANAPL

>  <dois>  (209) 
10.1002/9780470744307.gat218|10.1002/biuz.19840140514|10.1002/food.19880321030|10.1007/s00284-015-0785-y|10.1007/s11130-012-0286-0|10.1007/s11130-020-00822-2|10.1016/0031-9422(73)85046-0|10.1016/j.bmc.2007.01.035|10.1016/j.bmc.2009.08.036|10.1016/j.bmc.2015.04.053|10.1016/j.bmc.2017.12.011|10.1016/j.bmcl.2003.11.074|10.1016/j.bmcl.2009.07.098|10.1016/j.bmcl.2011.03.078|10.1016/j.foodchem.2009.03.042|10.1016/j.foodchem.2020.128444|10.1016/j.freeradbiomed.2004.04.034|10.1016/j.jep.2006.09.006|10.1016/j.jep.2007.10.011|10.1016/j.jep.2016.04.005|10.1021/acs.jnatprod.0c00756|10.1021/acs.jnatprod.6b00440|10.1021/acs.jnatprod.7b00325|10.1021/acs.jnatprod.9b00577|10.1021/acs.jnatprod.9b00697|10.1021/acs.jnatprod.9b00922|10.1021/jf0508044|10.1021/np010486c|10.1021/np020472m|10.1021/np030020p|10.1021/np070327e|10.1021/np070489a|10.1021/np100896w|10.1021/np400674t|10.1021/np500150f|10.1021/np500233t|10.1021/np50035a034|10.1021/np50096a027|10.1021/np50103a006|10.1021/np900117v|10.1021/np900772m|10.1021/np970025k|10.1021/np980536m|10.1021/np990033w|10.1071/ch9640428|10.1071/ch9681311|10.1080/01635580802100851|10.1093/carcin/bgn244|10.1093/pcp/pcn183|10.1097/MPA.0b013e3181735ccb|10.1097/MPA.0b013e318193a074|10.1111/1750-3841.12404|10.1111/1750-3841.15463|10.1111/j.1750-3841.2008.00716.x|10.1158/1535-7163.MCT-05-0370|10.1159/000090736|10.1186/s12906-015-0838-6|10.1186/s12906-015-0873-3|10.1186/s12934-016-0623-3|10.1371/journal.pone.0107072|10.3390/plants11030377|10.4014/jmb.1108.08012|10.5897/JMPR.9000078

>  <synonyms>  (209) 
520-36-5|5|7-Dihydroxy-2-(4-hydroxyphenyl)-4H-chromen-4-one|Versulin|Apigenol|Chamomile|4'|5|7-Trihydroxyflavone|Spigenin|Apigenine|C.I. Natural Yellow 1|Pelargidenon 1449|5|7|4'-Trihydroxyflavone|5|7-Dihydroxy-2-(4-hydroxyphenyl)-4H-1-benzopyran-4-one|2-(p-Hydroxyphenyl)-5|7-dihydroxychromone|4H-1-Benzopyran-4-one| 5|7-dihydroxy-2-(4-hydroxyphenyl)-|NSC 83244|UCCF 031|CCRIS 3789|FLAVONE| 4'|5|7-TRIHYDROXY-|CHEBI:18388|8002-66-2|EINECS 208-292-3|MFCD00006831|NSC-83244|UNII-7V515PI7F6|APEGENIN|BRN 0262620|Chamomile oil| german|DTXSID6022391|HSDB 7573|7V515PI7F6|CHEMBL28|PELARGIDENON-1449|CI NATURAL YELLOW 1|DTXCID902391|UCCF-031|5-18-04-00574 (Beilstein Handbook Reference)|CAS-520-36-5|LY-080400|4'|5|7-Trihydroxyflavone;Apigenol;C.I. Natural Yellow 1|SMR000326850|4&prime;|5|7-Trihydroxyflavone|SR-01000075663|Pelargidenone|4der|4dgm|4hkk|Naringenin| 18|5|7-Dihydroxy-2-(4-hydroxyphenyl)-4H-1-benzopyran-4-one;     4'|5|7-Trihydroxyflavone; Pelargidenon 1449;|Prestwick_719|Apigenin| 13|ACACETIN_met001|Tocris-1227|3cf9|ST056301|APIGENIN HSDB|APIGENIN INCI|APIGENIN MI|BiomolKI_000078|Prestwick0_000414|Spectrum2_000428|Spectrum3_001882|Spectrum4_001999|Lopac-A-3145|APIGENIN USP-RS|APIGENIN WHO-DD|Lopac0_000065|Oprea1_622293|SCHEMBL19428|4'|5|7-trihydroxy-Flavone|Apigenin| analytical standard|BSPBio_000368|BSPBio_003384|KBioGR_002565|SPECTRUM200846|MLS000697626|MLS000859991|MLS001074874|MLS006011839|BIDD:ER0135|DivK1c_000798|SCHEMBL222227|SPBio_000416|SPBio_002307|ghl.PD_Mitscher_leg0.1194|BDBM7458|BPBio1_000406|GTPL4136|MEGxp0_000176|ACon1_002450|cid_5280443|HMS502H20|KBio1_000798|KBio3_002887|NINDS_000798|Bio1_000376|Bio1_000865|Bio1_001354|HMS1569C10|HMS1922P22|HMS2096C10|HMS2230D17|HMS3260M11|HMS3267D21|HMS3373B18|HMS3412A08|HMS3561P09|HMS3655D18|HMS3676A08|HMS3866D03|Apigenin| >=95.0% (HPLC)|BCP28288|HY-N1201|Tox21_201542|Tox21_302884|Tox21_500065|Apigenin; 4'|5|7-Trihydroxyflavone|BBL010499|CCG-40061|HB0117|HSCI1_000221|LMPK12110005|NSC815095|s2262|STK801630|ZB1873|AKOS002140699|AC-8011|CS-5432|DB07352|LP00065|ND-9076|SDCCGMLS-0066379.P001|SDCCGSBI-0050053.P003|IDI1_000798|SMP2_000338|Apigenin| >=97% (TLC)| from citrus|NCGC00015049-01|NCGC00015049-22|NCGC00025057-01|NCGC00169835-01|NCGC00256419-01|NCGC00259092-01|NCGC00260750-01|NCI60_041830|SY005957|TS-00897|APIGENIN (CONSTITUENT OF CHAMOMILE)|EU-0100065|NS00007770|SW196866-2|A 3145|C01477|K00045|M01289|O11338|Apigenin 100 microg\/mL in Acetonitrile:Methanol|Apigenin| >=97% (TLC)| from parsley| powder|Biochem Biophys Res Comm 212: 767 (1997)|EN300-7382221|A828903|Apigenin| primary pharmaceutical reference standard|Q424567|2-(P-HYDROXYPHENYL)-5|7-DIHYDROXY-CHROMONE|Q-100586|Q-200822|BRD-K01493881-001-10-4|Z1741982550|D50A2D8A-6D8B-4708-B21E-2DE9580D033F|Apigenin| United States Pharmacopeia (USP) Reference Standard|4H-1BENZOPYRAN-4-ONE|5|7-DIHYDROXY-2-(4-HYDROXY-PHENYL)-|Widely distributed in plant|apigenin|Apigenin| (6aS11aS)-3- hydroxy-89-methylenedioxypterocarpan| 574'-trihydroxyflavone|FSL0363

>  <cas>  (209) 
520-36-5|8002-66-2

$$$$

     RDKit          2D

 22 24  0  0  0  0  0  0  0  0999 V2000
   -4.4251    1.1586    0.0000 C   0  0  0  0  0  0  0  0  0  0  0  0
   -4.1038   -0.3066    0.0000 O   0  0  0  0  0  0  0  0  0  0  0  0
   -2.6743   -0.7609    0.0000 C   0  0  0  0  0  0  0  0  0  0  0  0
   -2.3530   -2.2261    0.0000 C   0  0  0  0  0  0  0  0  0  0  0  0
   -3.4612   -3.2370    0.0000 O   0  0  0  0  0  0  0  0  0  0  0  0
   -0.9235   -2.6805    0.0000 C   0  0  0  0  0  0  0  0  0  0  0  0
    0.1848   -1.6696    0.0000 C   0  0  0  0  0  0  0  0  0  0  0  0
    1.6143   -2.1240    0.0000 C   0  0  0  0  0  0  0  0  0  0  0  0
    2.7225   -1.1131    0.0000 C   0  0  0  0  0  0  0  0  0  0  0  0
    4.1521   -1.5675    0.0000 O   0  0  0  0  0  0  0  0  0  0  0  0
    4.4734   -3.0327    0.0000 C   0  0  0  0  0  0  0  0  0  0  0  0
    2.4013    0.3521    0.0000 C   0  0  0  0  0  0  0  0  0  0  0  0
    3.5095    1.3629    0.0000 C   0  0  0  0  0  0  0  0  0  0  0  0
    3.1882    2.8281    0.0000 C   0  0  0  0  0  0  0  0  0  0  0  0
    1.7587    3.2824    0.0000 C   0  0  0  0  0  0  0  0  0  0  0  0
    0.6504    2.2716    0.0000 C   0  0  0  0  0  0  0  0  0  0  0  0
   -0.7791    2.7259    0.0000 O   0  0  0  0  0  0  0  0  0  0  0  0
    0.9717    0.8064    0.0000 C   0  0  0  0  0  0  0  0  0  0  0  0
   -0.1365   -0.2044    0.0000 C   0  0  0  0  0  0  0  0  0  0  0  0
   -1.5661    0.2499    0.0000 C   0  0  0  0  0  0  0  0  0  0  0  0
   -1.8873    1.7151    0.0000 O   0  0  0  0  0  0  0  0  0  0  0  0
   -3.3169    2.1694    0.0000 C   0  0  0  0  0  0  0  0  0  0  0  0
  1  2  1  0
  2  3  1  0
  3  4  2  0
  4  5  1  0
  4  6  1  0
  6  7  2  0
  7  8  1  0
  8  9  2  0
  9 10  1  0
 10 11  1  0
  9 12  1  0
 12 13  2  0
 13 14  1  0
 14 15  2  0
 15 16  1  0
 16 17  1  0
 16 18  2  0
 18 19  1  0
 19 20  2  0
 20 21  1  0
 21 22  1  0
 20  3  1  0
 19  7  1  0
 18 12  1  0
M  END
>  <identifier>  (210) 
CNP0325151.0

>  <canonical_smiles>  (210) 
COC1=C(O)C=C2C=C(OC)C3=CC=CC(O)=C3C2=C1OC

>  <standard_inchi>  (210) 
InChI=1S/C17H16O5/c1-20-13-8-9-7-12(19)16(21-2)17(22-3)14(9)15-10(13)5-4-6-11(15)18/h4-8,18-19H,1-3H3

>  <standard_inchi_key>  (210) 
MRYYPHKLLLULDL-UHFFFAOYSA-N

>  <name>  (210) 
Fimbriol A

>  <iupac_name>  (210) 
3,4,9-trimethoxyphenanthrene-2,5-diol

>  <annotation_level>  (210) 
5

>  <total_atom_count>  (210) 
38

>  <heavy_atom_count>  (210) 
22

>  <molecular_weight>  (210) 
300.31

>  <exact_molecular_weight>  (210) 
300.09977

>  <molecular_formula>  (210) 
C17H16O5

>  <alogp>  (210) 
3.43

>  <topological_polar_surface_area>  (210) 
68.15

>  <rotatable_bond_count>  (210) 
3

>  <hydrogen_bond_acceptors>  (210) 
5

>  <hydrogen_bond_donors>  (210) 
2

>  <hydrogen_bond_acceptors_lipinski>  (210) 
5

>  <hydrogen_bond_donors_lipinski>  (210) 
2

>  <lipinski_rule_of_five_violations>  (210) 
0

>  <aromatic_rings_count>  (210) 
3

>  <qed_drug_likeliness>  (210) 
0.73

>  <formal_charge>  (210) 
0

>  <fractioncsp3>  (210) 
0.18

>  <number_of_minimal_rings>  (210) 
3

>  <van_der_walls_volume>  (210) 
258.88

>  <contains_sugar>  (210) 
False

>  <contains_ring_sugars>  (210) 
False

>  <contains_linear_sugars>  (210) 
False

>  <murcko_framework>  (210) 
c1ccc2c(c1)ccc3ccccc32

>  <np_likeness>  (210) 
1.26

>  <chemical_class>  (210) 
Phenanthrenes and derivatives

>  <chemical_sub_class>  (210) 
Phenanthrols

>  <chemical_super_class>  (210) 
Benzenoids

>  <direct_parent_classification>  (210) 
Phenanthrols

>  <np_classifier_pathway>  (210) 
Shikimates and Phenylpropanoids

>  <np_classifier_superclass>  (210) 
Phenanthrenoids

>  <np_classifier_class>  (210) 
Phenanthrenes

>  <np_classifier_is_glycoside>  (210) 
False

>  <organisms>  (210) 
Ephemerantha fimbriata (BL.) P.F.HUNT et SUMMERH|Epidendrum rigidum|Maxillaria densa

>  <collections>  (210) 
BIOFACQUIM|KNApSaCK|Latin America dataset|NPASS|Super Natural II|UNPD (Universal Natural Products Database)

>  <dois>  (210) 
10.1021/jf0508044|10.1021/np300508v

>  <synonyms>  (210) 
3|4|9-trimethoxyphenanthrene-2|5-diol|CHEMBL2208382|2|5-dihydroxy-3|4|9-trimethoxyphenanthrene|Fimbriol A

>  <cas>  (210) 
nan

$$$$

     RDKit          2D

 14 15  0  0  0  0  0  0  0  0999 V2000
    4.5785   -0.4889    0.0000 O   0  0  0  0  0  0  0  0  0  0  0  0
    3.1017   -0.2259    0.0000 C   0  0  0  0  0  0  0  0  0  0  0  0
    2.6979    1.2187    0.0000 C   0  0  0  0  0  0  0  0  0  0  0  0
    1.3167    1.8037    0.0000 C   0  0  0  0  0  0  0  0  0  0  0  0
   -0.0018    1.0886    0.0000 C   0  0  0  0  0  0  0  0  0  0  0  0
   -1.1492    2.0548    0.0000 C   0  0  0  0  0  0  0  0  0  0  0  0
   -2.5597    1.5441    0.0000 C   0  0  0  0  0  0  0  0  0  0  0  0
   -2.8227    0.0674    0.0000 C   0  0  0  0  0  0  0  0  0  0  0  0
   -4.2331   -0.4432    0.0000 Cl  0  0  0  0  0  0  0  0  0  0  0  0
   -1.6752   -0.8988    0.0000 C   0  0  0  0  0  0  0  0  0  0  0  0
   -1.9382   -2.3755    0.0000 O   0  0  0  0  0  0  0  0  0  0  0  0
   -0.2648   -0.3882    0.0000 C   0  0  0  0  0  0  0  0  0  0  0  0
    0.7258   -1.5145    0.0000 C   0  0  0  0  0  0  0  0  0  0  0  0
    2.2240   -1.4423    0.0000 O   0  0  0  0  0  0  0  0  0  0  0  0
  1  2  2  0
  2  3  1  0
  3  4  2  0
  4  5  1  0
  5  6  2  0
  6  7  1  0
  7  8  2  0
  8  9  1  0
  8 10  1  0
 10 11  1  0
 10 12  2  0
 12 13  1  0
 13 14  1  0
 14  2  1  0
 12  5  1  0
M  END
>  <identifier>  (211) 
CNP0080289.0

>  <canonical_smiles>  (211) 
O=C1C=CC2=CC=C(Cl)C(O)=C2CO1

>  <standard_inchi>  (211) 
InChI=1S/C10H7ClO3/c11-8-3-1-6-2-4-9(12)14-5-7(6)10(8)13/h1-4,13H,5H2

>  <standard_inchi_key>  (211) 
WHBSVFFDUQPHNS-UHFFFAOYSA-N

>  <name>  (211) 
8-Chloroxylarinol A

>  <iupac_name>  (211) 
8-chloro-9-hydroxy-1~{H}-2-benzoxepin-3-one

>  <annotation_level>  (211) 
5

>  <total_atom_count>  (211) 
21

>  <heavy_atom_count>  (211) 
14

>  <molecular_weight>  (211) 
210.62

>  <exact_molecular_weight>  (211) 
210.00837

>  <molecular_formula>  (211) 
C10H7ClO3

>  <alogp>  (211) 
2.12

>  <topological_polar_surface_area>  (211) 
46.53

>  <rotatable_bond_count>  (211) 
0

>  <hydrogen_bond_acceptors>  (211) 
3

>  <hydrogen_bond_donors>  (211) 
1

>  <hydrogen_bond_acceptors_lipinski>  (211) 
3

>  <hydrogen_bond_donors_lipinski>  (211) 
1

>  <lipinski_rule_of_five_violations>  (211) 
0

>  <aromatic_rings_count>  (211) 
1

>  <qed_drug_likeliness>  (211) 
0.67

>  <formal_charge>  (211) 
0

>  <fractioncsp3>  (211) 
0.10

>  <number_of_minimal_rings>  (211) 
2

>  <van_der_walls_volume>  (211) 
167.95

>  <contains_sugar>  (211) 
False

>  <contains_ring_sugars>  (211) 
False

>  <contains_linear_sugars>  (211) 
False

>  <murcko_framework>  (211) 
O1CC=Cc2ccccc2C1

>  <np_likeness>  (211) 
1.31

>  <chemical_class>  (211) 
Benzoxepines

>  <chemical_sub_class>  (211) 
Benzoxepines

>  <chemical_super_class>  (211) 
Organoheterocyclic compounds

>  <direct_parent_classification>  (211) 
Benzoxepines

>  <np_classifier_pathway>  (211) 
Polyketides

>  <np_classifier_superclass>  (211) 
nan

>  <np_classifier_class>  (211) 
nan

>  <np_classifier_is_glycoside>  (211) 
False

>  <organisms>  (211) 
Malbranchea flavorosea

>  <collections>  (211) 
BIOFACQUIM|Latin America dataset|NPAtlas

>  <dois>  (211) 
10.1021/acs.jnatprod.6b00977

>  <synonyms>  (211) 
CHEBI:206549|8-chloro-9-hydroxy-1H-2-benzoxepin-3-one|8-chloroxylarinol A

>  <cas>  (211) 
nan

$$$$

     RDKit          2D

 31 34  0  0  0  0  0  0  0  0999 V2000
   -0.9562   -3.1405    0.0000 O   0  0  0  0  0  0  0  0  0  0  0  0
   -1.5587   -1.7668    0.0000 C   0  0  0  0  0  0  0  0  0  0  0  0
   -3.0496   -1.6017    0.0000 C   0  0  0  0  0  0  0  0  0  0  0  0
   -3.6521   -0.2281    0.0000 C   0  0  0  0  0  0  0  0  0  0  0  0
   -5.1430   -0.0630    0.0000 C   0  0  0  0  0  0  0  0  0  0  0  0
   -5.7455    1.3107    0.0000 C   0  0  0  0  0  0  0  0  0  0  0  0
   -7.2364    1.4758    0.0000 C   0  0  0  0  0  0  0  0  0  0  0  0
   -8.1248    0.2671    0.0000 C   0  0  0  0  0  0  0  0  0  0  0  0
   -9.6157    0.4322    0.0000 O   0  0  0  0  0  0  0  0  0  0  0  0
   -7.5223   -1.1065    0.0000 C   0  0  0  0  0  0  0  0  0  0  0  0
   -6.0314   -1.2716    0.0000 C   0  0  0  0  0  0  0  0  0  0  0  0
   -2.7637    0.9806    0.0000 O   0  0  0  0  0  0  0  0  0  0  0  0
   -1.2728    0.8155    0.0000 C   0  0  0  0  0  0  0  0  0  0  0  0
   -0.3844    2.0241    0.0000 C   0  0  0  0  0  0  0  0  0  0  0  0
    1.1065    1.8590    0.0000 C   0  0  0  0  0  0  0  0  0  0  0  0
    1.9949    3.0677    0.0000 O   0  0  0  0  0  0  0  0  0  0  0  0
    1.7090    0.4854    0.0000 C   0  0  0  0  0  0  0  0  0  0  0  0
    3.1998    0.3203    0.0000 C   0  0  0  0  0  0  0  0  0  0  0  0
    3.8023   -1.0534    0.0000 O   0  0  0  0  0  0  0  0  0  0  0  0
    5.2932   -1.2185    0.0000 C   0  0  0  0  0  0  0  0  0  0  0  0
    5.8957   -2.5921    0.0000 C   0  0  0  0  0  0  0  0  0  0  0  0
    5.0073   -3.8008    0.0000 O   0  0  0  0  0  0  0  0  0  0  0  0
    6.1816   -0.0098    0.0000 C   0  0  0  0  0  0  0  0  0  0  0  0
    7.6725   -0.1749    0.0000 O   0  0  0  0  0  0  0  0  0  0  0  0
    5.5791    1.3638    0.0000 C   0  0  0  0  0  0  0  0  0  0  0  0
    6.4675    2.5725    0.0000 O   0  0  0  0  0  0  0  0  0  0  0  0
    4.0882    1.5289    0.0000 C   0  0  0  0  0  0  0  0  0  0  0  0
    3.4857    2.9026    0.0000 O   0  0  0  0  0  0  0  0  0  0  0  0
    0.8206   -0.7233    0.0000 C   0  0  0  0  0  0  0  0  0  0  0  0
    1.4230   -2.0969    0.0000 O   0  0  0  0  0  0  0  0  0  0  0  0
   -0.6703   -0.5582    0.0000 C   0  0  0  0  0  0  0  0  0  0  0  0
  1  2  2  0
  2  3  1  0
  3  4  2  0
  4  5  1  0
  5  6  2  0
  6  7  1  0
  7  8  2  0
  8  9  1  0
  8 10  1  0
 10 11  2  0
  4 12  1  0
 12 13  1  0
 13 14  2  0
 14 15  1  0
 15 16  1  0
 15 17  2  0
 18 17  1  1
 18 19  1  0
 19 20  1  0
 20 21  1  1
 21 22  1  0
 20 23  1  0
 23 24  1  6
 23 25  1  0
 25 26  1  1
 25 27  1  0
 27 28  1  6
 17 29  1  0
 29 30  1  0
 29 31  2  0
 31  2  1  0
 11  5  1  0
 31 13  1  0
 27 18  1  0
M  END
>  <identifier>  (212) 
CNP0198174.1

>  <canonical_smiles>  (212) 
O=C1C=C(C2=CC=C(O)C=C2)OC2=CC(O)=C([C@@H]3O[C@H](CO)[C@@H](O)[C@H](O)[C@H]3O)C(O)=C12

>  <standard_inchi>  (212) 
InChI=1S/C21H20O10/c22-7-14-17(26)19(28)20(29)21(31-14)16-11(25)6-13-15(18(16)27)10(24)5-12(30-13)8-1-3-9(23)4-2-8/h1-6,14,17,19-23,25-29H,7H2/t14-,17-,19+,20-,21+/m1/s1

>  <standard_inchi_key>  (212) 
MYXNWGACZJSMBT-VJXVFPJBSA-N

>  <name>  (212) 
Isovitexin

>  <iupac_name>  (212) 
5,7-dihydroxy-2-(4-hydroxyphenyl)-6-[(2~{S},3~{R},4~{R},5~{S},6~{R})-3,4,5-trihydroxy-6-(hydroxymethyl)tetrahydropyran-2-yl]chromen-4-one

>  <annotation_level>  (212) 
5

>  <total_atom_count>  (212) 
51

>  <heavy_atom_count>  (212) 
31

>  <molecular_weight>  (212) 
432.38

>  <exact_molecular_weight>  (212) 
432.10565

>  <molecular_formula>  (212) 
C21H20O10

>  <alogp>  (212) 
0.09

>  <topological_polar_surface_area>  (212) 
181.05

>  <rotatable_bond_count>  (212) 
3

>  <hydrogen_bond_acceptors>  (212) 
10

>  <hydrogen_bond_donors>  (212) 
7

>  <hydrogen_bond_acceptors_lipinski>  (212) 
10

>  <hydrogen_bond_donors_lipinski>  (212) 
7

>  <lipinski_rule_of_five_violations>  (212) 
1

>  <aromatic_rings_count>  (212) 
3

>  <qed_drug_likeliness>  (212) 
0.30

>  <formal_charge>  (212) 
0

>  <fractioncsp3>  (212) 
0.29

>  <number_of_minimal_rings>  (212) 
4

>  <van_der_walls_volume>  (212) 
351.66

>  <contains_sugar>  (212) 
True

>  <contains_ring_sugars>  (212) 
True

>  <contains_linear_sugars>  (212) 
False

>  <murcko_framework>  (212) 
O1c2ccc(cc2CC=C1c3ccccc3)C4OCCCC4

>  <np_likeness>  (212) 
1.99

>  <chemical_class>  (212) 
Flavonoids

>  <chemical_sub_class>  (212) 
Flavonoid glycosides

>  <chemical_super_class>  (212) 
Phenylpropanoids and polyketides

>  <direct_parent_classification>  (212) 
Flavonoid C-glycosides

>  <np_classifier_pathway>  (212) 
Shikimates and Phenylpropanoids

>  <np_classifier_superclass>  (212) 
Flavonoids

>  <np_classifier_class>  (212) 
Flavones

>  <np_classifier_is_glycoside>  (212) 
False

>  <organisms>  (212) 
Acacia caven|Acacia furcatispina|Achillea pseudopectinata|Adenia volkensii|Adenopeltis colliguaya|Aglaia australiensis|Allagopappus viscosissimus|Alternanthera bettzickiana|Ambrosia artemisiifolia var. elatior|Amsinckia tessellata|Anadenanthera peregrina|Anemone tomentosa|Anisothrix integra|Anolis lineatopus|Aplophyllum pedicellatum|Aristotelia serrata|Artemisia annua L.|Artemisia apiacea|Artemisia mongolica|Ascarina lucida|Aspalathus linearis|Aspergillus arenarius|Aspergillus mutabilis|Aspergillus quadrilineatus|Astragalus pycnanthus|Astragalus spinosus|Atuna racemosa|Aucuba chinensis|Aurelia aurita|Baccharis angustifolia|Barbacenia flava|Berberis floribunda|Berlinia tomentosa|Bistorta vivipara|Bituminaria bituminosa|Boehmeria nivea|Bohadschia vitiensis|Bombax malabaricum|Bombus hortorum|Bonamia spectabilis|Brickellia vernicosa|Camellia sinensis|Camellia sinensis (L.) O.KUNTZE|Campsis grandiflora|Capsicum tetragonum|Carica dodecaphylla|Cecropia pachystachya|Cedronella canariensis|Centaurea hermannii|Centaurea huber-morathii|Centaurea melitensis L.|Centaurea nervosa|Centaurea seridis|Ceratocystis clavigera|Cereus weberi|Chimarrhis turbinata|Chrozophora obliqua|Chrysosplenium americanum|Citrullus colocynthis (L.)|Citrus aurantium|Citrus natsudaidai|Citrus rugulosa|Citrus tangerina|Cladogynos orientalis|Clinacanthus nutans|Cneorum pulverulentum|Coleus garckeanus|Colpomenia sinuosa|Commelina communis|Commelina communis L|Consolida ajacis|Coryphantha calipensis|Crataegus monogyna|Crocus minimus|Crotalaria anagyroides|Crotalaria micans|Crotalaria verrucosa|Croton poilanei|Croton zambezicus|Cucumis sativus|Cunila spicata|Cunonia macrophylla|Curculigo pilosa|Cymodocea nodosa|Cynometra lujae|Cynthia papillosa|Cytisus hirsutus|Dalbergia monetaria|Dalbergia stipulacea|Daphne sericea|Dasymaschalon sootepense|Desmodium styracifolium|Desmodium triflorum|Dicranopteris ampla|Dictyoloma incanescens|Dictyopteris undulata|Dinemasporium strigosum|Dinophysis fortii|Diplacus longiflorus|Diplazium nipponicum|Drechslera gigantea|Drymaria diandra|Dunalia solanacea|Elaeagnus commutata|Entada rheedei|Eperua purpurea|Epidendrum rigidum|Eritrichium sericeum|Erylus trisphaerus|Eucalyptus flocktoniae|Eucomis punctata|Euonymus sachalinensis|Eupatorium adenophorum|Eupatorium areolare|Euphorbia clarkeana|Euphorbia hirta|Felicia erigeroides|Felimida luteorosea|Ficus lutea|Ficus microcarpa|Flacourtia indica|Flindersia brayleyana|Fumaria micrantha|Galactia glaucophylla|Garcinia hombroniana|Gentiana argentea|Gentiana arisanensis|Gentiana depressa|Gentiana elwesii|Gentiana lutea|Gentiana pedicellata|Gentiana prolata|Gentiana sikkimensis|Geranium phaeum|Gerbera piloselloides|Gleditsia caspica|Gleditsia japonica|Gleditsia sinensis|Glycyrrhiza glabra|Gracilaria textorii|Guatteria melosma|Haplophyllum ramosissimum|Hedyotis dichotoma|Helichrysum mixtum|Helminthosporium sativum|Heracleum sphondylium|Hornschuchia citriodora|Humata pectinata|Hydrangea serrata|Hymenoxys scaposa|Hyphaene thebaica|Hypselodoris zebra|Impatiens capensis|Ipomoea purpurea|Iris pallasii|Isatis tinctoria|Iyengaria stellata|Jamesoniella colorata|Jungermannia obovata|Kali turgidum|Kummerowia striata|Laurus azorica|Lepidium sativum|Lepidosperma ustulatum|Leptopsammia pruvoti|Lespedeza capitata|Lespedeza hedysaroides|Lespedeza juncea|Linum usitatissimum|Lobophytum chevalieri|Lobophytum schoedei|Lomatia polymorpha|Lophatherum gracile|Lunularia cruciata|Lupinus paniculatus|Lupinus sericeus|Lycoris traubii|Lygodium flexuosum|Lyngbya aestuarii|Lyophyllum shimeji|Lysiana subfalcata|Lysimachia christinae|Lysimachia foenum-graecum|Macadamia ternifolia|Macaranga peltata|Macaranga tanarius|Mammea siamensis|Mascarenhasia arborescens|Meconopsis napaulensis|Melandryum firmum|Merremia umbellata|Methylobacterium rhodinum|Microcos paniculata|Millettia conraui|Nelumbo nucifera|Nerine filifolia|Nostoc spongiaeforme|Olea europaea|Ormosia panamensis|Osmerus mordax|Osteospermum muricatum|Otholobium bracteolatum|Otholobium foliosum|Otholobium fruticans|Otholobium hirtum|Otholobium parviflorum|Otholobium sericeum|Palafoxia rosea|Panax ginseng|Papaver tatricum|Parablechnum minus|Parachlorella kessleri|Parkinsonia aculeata|Passiflora|Passiflora serratodigitata|Passiflora spp.|Patrinia scabiosifolia|Patrinia villosa|Pedicularis condensata|Pelargonium reniforme|Peltogyne paniculata|Peltogyne pubescens|Peperomia vulcanica|Perityle vaseyi|Persicaria tinctoria|Phaeolus schweinitzii|Pharbitis nil|Phlogacanthus tubiflorus|Phoebe formosana|Phoenix hanceana var. formosana|Phoma medicaginis|Physalis edulis|Pimpinella major|Pisum sativum|Platycarya strobilacea|Pleurotus japonicus|Polygonum affine|Porella swartziana|Potentilla erecta|Potentilla griffithii|Premna tomentosa|Prosopis alba|Prosopis argentina|Prosopis chilensis|Prosopis fiebrigii|Prosopis hassleri|Prosopis kuntzei|Prosopis nigra|Prosopis reptans|Prosopis ruscifolia|Prosopis strombulifera|Prosopis vinalillo|Pseudoceratina arabica|Psophocarpus tetragonolobus|Psoralea affinis|Psoralea arborea|Psoralea asarina|Psoralea connixa|Psoralea effusa|Psoralea imbricata|Psoralea laxa|Psoralea papillosa|Psoralea ramulosa|Psoralea speciosa|Pterodon emarginatus|Pulsatilla campanella|Pygeum topengii|Pyrrosia lingua|Pyrrosia petiolosa|Pyrrosia sheareri|Pyrrosia tricuspis|Quercus mongolica|Ranunculus peltatus|Retama sphaerocarpa|Rheum webbianum|Rhododendron caucasicum|Rhynchosia cana|Rhynchosia capitata|Rhynchosia heynei|Rhynchosia jacobii|Rhynchosia minima|Rhynchosia rothii|Rhynchosia suaveolens|Rosulabryum capillare|Rubus parvifolius|Sabia japonica|Saccharomyces cerevisiae BJ5464-NpgA [n.a.]|Saccharum spontaneum|Sagittaria sagittifolia|Salacia chinensis|Salvia coulteri|Salvia miltiorrhiza|Satureja cuneifolia|Saussurea amara|Securigera varia|Securinega melanthesoides|Senecio eremophilus|Senecio flavus|Sia ferox|Sida cordifolia|Sideritis euboea|Sisyrinchium californicum|Smilax bracteata|Solanum sisymbriifolium|Solenopsis invicta|Sophora fraseri|Sorbus tianschanica|Spirodela polyrhiza|Spodoptera littoralis|Stephania elegans|Streptomyces argenteolus|Streptomyces fradiae|Streptomyces griseochromogenes|Streptomyces mobaraensis|Streptomyces pentaticus|Strophioblachia fimbricalyx|Strophioblachia fimbricalyx Boerl|Strychnos guianensis|Strychnos staudtii|Suberea mollis|Swartzia polyphylla|Swertia decussata|Swertia japonica|Swertia perennis|Swertia pseudochinensis|Swertia swertopsis|Syzygium nervosum|Talaromyces pinophilus|Tamarindus indica|Taraxacum borealisinense|Taraxacum coreanum|Taraxacum mongolicum|Taraxacum officinale|Taraxacum platycarpum|Taxus brevifolia|Thelephora palmata|Theobroma cacao|Theobroma cacao L.|Thermomyces dupontii|Thomandersia laurifolia|Thymbra spicata|Tinospora crispa|Tournefortia argentea|Trichia floriformis|Trichoderma koningi|Tripterospermum japonicum|Trogoderma granarium|Tsuga chinensis|Tsuga mertensiana|Turraeanthus africanus|Turraeanthus mannii|Usnea undulata|Utricularia australis|Vaccaria hispanica|Vigna angularis|Vigna mungo|Vigna radiata|Vigna umbellata|Vigna umbeuata|Viguiera puruana|Virgilia divaricata|Vitex littoralis|Vitex lucens|Vitex negundo|Vitex polygama|Woodsia manchuriensis|Ziziphus jujuba

>  <collections>  (212) 
ANPDB|AfroDB|Australian natural products|BIOFACQUIM|CMAUP (cCollective molecular activities of useful plants)|ChEBI NPs|ConMedNP|GNPS (Global Natural Products Social Molecular Networking)|KNApSaCK|Latin America dataset|NANPDB (Natural Products from Northern African Sources)|NPASS|Phenol-explorer|Phyto4Health|PubChem NPs|SANCDB|Super Natural II|TCMDB-Taiwan (Traditional Chinese Medicine database)|VietHerb|ZINC NP

>  <dois>  (212) 
10.1007/s13197-017-3031-8|10.1016/S0031-9422(00)85201-2|10.1021/acs.jafc.9b00846|10.1021/jf0508044|10.1071/ch9650715|10.1080/14786419.2010.518146|10.1081/jlc-100105957|10.13005/ojc/300334

>  <synonyms>  (212) 
38953-85-4|Saponaretin|29702-25-8|Homovitexin|6-Glucosylapigenin|Apigenin-6-C-glucoside|Isoavroside|Avroside|CHEBI:18330|UNII-KTQ9R9MS0Q|KTQ9R9MS0Q|beta-D-isovitexin|Apigenin 6-C-beta-glucopyranoside|5|7-dihydroxy-2-(4-hydroxyphenyl)-6-((2S|3R|4R|5S|6R)-3|4|5-trihydroxy-6-(hydroxymethyl)tetrahydro-2H-pyran-2-yl)-4H-chromen-4-one|5|7-dihydroxy-2-(4-hydroxyphenyl)-6-(2S|3R|4R|5S|6R)-3|4|5-trihydroxy-6-(hydroxymethyl)oxan-2-ylchromen-4-one|6-C-beta-D-Glucopyranosylapigenin|Flavone| 6-beta-D-glucopyranosyl-4'|5|7-trihydroxy-|6C-hexosyl apigenin|4H-1-Benzopyran-4-one| 6-beta-D-glucopyranosyl-5|7-dihydroxy-2-(4-hydroxyphenyl)-|6-C-glucosyl-apigenin|(1S)-1|5-anhydro-1-5|7-dihydroxy-2-(4-hydroxyphenyl)-4-oxo-4H-chromen-6-yl-D-glucitol|Saponaretin;Homovitexin|SMR001215816|ISOVITEXIN WITH|6-C-glucosyl-4'|5|7-trihydroxyflavone|6-(beta-D-glucopyranosyl)-2-hydroxynaringenin|CCRIS 9341|Isovitexin with HPLC|ISOVITEXIN?|C01714|ISOVITEXIN WHO-DD|MLS000563041|MLS002473147|SCHEMBL513620|Isovitexin| analytical standard|CHEMBL465360|DTXSID60952152|HMS2268O04|HMS3886D14|HY-N0773|Isovitexin| >=98.0% (HPLC)|BDBM50486938|MFCD00076044|s9035|AKOS032948364|CCG-208397|6-beta-D-Glucopyranosyl-5|7-dihydroxy-2-(4-hydroxyphenyl)-4H-1-benzopyran-4-one|NCGC00163578-01|AC-34970|AS-56231|6-C-.BETA.-D-GLUCOPYRANOSYLAPIGENIN|CS-0009796|Isovitexin 100 microg\/mL in Acetonitrile:Methanol|Isovitexin| primary pharmaceutical reference standard|Q3155636|Ethyl6-amino-5-cyano-2-methyl-4-phenyl-4H-pyran-3-carboxylate|ISOVITEXIN (CONSTITUENT OF HAWTHORN LEAF WITH FLOWER)|Isovitexin|6-C-beta-D-glucopyranosyl- 5|7|4'-trihydroxyflavone

>  <cas>  (212) 
38953-85-4|29702-25-8

$$$$

     RDKit          2D

 10 10  0  0  0  0  0  0  0  0999 V2000
   -4.4665    0.2305    0.0000 O   0  0  0  0  0  0  0  0  0  0  0  0
   -2.9915    0.5034    0.0000 C   0  0  0  0  0  0  0  0  0  0  0  0
   -2.0177   -0.6375    0.0000 C   0  0  0  0  0  0  0  0  0  0  0  0
   -0.5427   -0.3646    0.0000 C   0  0  0  0  0  0  0  0  0  0  0  0
   -0.0416    1.0492    0.0000 C   0  0  0  0  0  0  0  0  0  0  0  0
    1.4334    1.3221    0.0000 C   0  0  0  0  0  0  0  0  0  0  0  0
    2.4072    0.1811    0.0000 C   0  0  0  0  0  0  0  0  0  0  0  0
    3.8822    0.4540    0.0000 O   0  0  0  0  0  0  0  0  0  0  0  0
    1.9061   -1.2327    0.0000 C   0  0  0  0  0  0  0  0  0  0  0  0
    0.4311   -1.5055    0.0000 C   0  0  0  0  0  0  0  0  0  0  0  0
  1  2  1  0
  2  3  1  0
  3  4  1  0
  4  5  2  0
  5  6  1  0
  6  7  2  0
  7  8  1  0
  7  9  1  0
  9 10  2  0
 10  4  1  0
M  END
>  <identifier>  (213) 
CNP0160217.0

>  <canonical_smiles>  (213) 
OCCC1=CC=C(O)C=C1

>  <standard_inchi>  (213) 
InChI=1S/C8H10O2/c9-6-5-7-1-3-8(10)4-2-7/h1-4,9-10H,5-6H2

>  <standard_inchi_key>  (213) 
YCCILVSKPBXVIP-UHFFFAOYSA-N

>  <name>  (213) 
2-(4-Hydroxyphenyl)ethanol

>  <iupac_name>  (213) 
4-(2-hydroxyethyl)phenol

>  <annotation_level>  (213) 
5

>  <total_atom_count>  (213) 
20

>  <heavy_atom_count>  (213) 
10

>  <molecular_weight>  (213) 
138.17

>  <exact_molecular_weight>  (213) 
138.06808

>  <molecular_formula>  (213) 
C8H10O2

>  <alogp>  (213) 
0.93

>  <topological_polar_surface_area>  (213) 
40.46

>  <rotatable_bond_count>  (213) 
2

>  <hydrogen_bond_acceptors>  (213) 
2

>  <hydrogen_bond_donors>  (213) 
2

>  <hydrogen_bond_acceptors_lipinski>  (213) 
2

>  <hydrogen_bond_donors_lipinski>  (213) 
2

>  <lipinski_rule_of_five_violations>  (213) 
0

>  <aromatic_rings_count>  (213) 
1

>  <qed_drug_likeliness>  (213) 
0.64

>  <formal_charge>  (213) 
0

>  <fractioncsp3>  (213) 
0.25

>  <number_of_minimal_rings>  (213) 
1

>  <van_der_walls_volume>  (213) 
134.01

>  <contains_sugar>  (213) 
False

>  <contains_ring_sugars>  (213) 
False

>  <contains_linear_sugars>  (213) 
False

>  <murcko_framework>  (213) 
c1ccccc1

>  <np_likeness>  (213) 
0.81

>  <chemical_class>  (213) 
Phenols

>  <chemical_sub_class>  (213) 
Tyrosols and derivatives

>  <chemical_super_class>  (213) 
Benzenoids

>  <direct_parent_classification>  (213) 
Tyrosols

>  <np_classifier_pathway>  (213) 
Shikimates and Phenylpropanoids

>  <np_classifier_superclass>  (213) 
Phenylethanoids (C6-C2)

>  <np_classifier_class>  (213) 
Phenylethanoids

>  <np_classifier_is_glycoside>  (213) 
False

>  <organisms>  (213) 
Acacia catechu|Acanthopanax ricinifolius|Achlys triphylla|Aconitum violaceum|Acorus gramineus|Acorus tatarinowii|Actinidia arguta|Adenia fruticosa|Aeromonas hydrophila|Agelas linnaei|Albizia Julibrissin|Albizia procera|Alectoria ochroleuca|Alternaria japonica|Amsinckia tessellata|Anacardium occidentale|Anchusa officinalis|Anemone tomentosa|Anolis lineatopus|Aplophyllum pedicellatum|Artemisia caucasica|Artemisia gilvescens|Artemisia giraldii|Artemisia porrecta|Ascidia ahodori|Aspalathus linearis|Aspergillus falconensis|Aspergillus mutabilis|Aster ptarmicoides|Asteracantha longifolia|Aucuba chinensis|Aurelia aurita|Billbergia buchholtzii|Bistorta vivipara|Bleekeria vitiensis|Bohadschia vitiensis|Botryosphaeria rhodina|Brickellia vernicosa|Bryophyllum calycinum|Bulbophyllum protractum|Bupleurum salicifolium|Bursera tonkinensis|Calocera viscosa|Calystegia pubescens|Carica dodecaphylla|Caryopteris mongholica|Caulerpa serrulata|Cedronella canariensis|Centaurea huber-morathii|Centrosema haitense|Ceramium rubrum|Ceratocystis fimbriata|Cheilanthes chusana|Chrysosplenium americanum|Cistanche deserticola|Cistanche tubulosa|Citrullus lanatus|Citrus tangerina|Codonopsis pilosula|Colletotrichum gloeosporioides|Colpomenia sinuosa|Corydalis gigantea|Crella incrustans|Cremastra appendiculata|Crocus minimus|Crocus sativus|Cunonia macrophylla|Curculigo pilosa|Cyberlindnera jadinii|Cynometra lujae|Cypripedium calceolus|Dalbergia rubiginosa|Datura stramonium|Delphinium fangshanense|Delphinium shawurense|Dimorphotheca sinuata|Diospyros glaucifolia|Dysidea amblia|Dysosma delavayi|Echinochloa esculenta|Echinopepon bigelovii|Elymnias thryallis|Engelhardia roxburghiana|Entada rheedei|Epimedium brevicornum|Eritrichium sericeum|Erylus trisphaerus|Eupatorium areolare|Euphorbia kansui|Euplotes raikovi|Exobasidium vaccinii|FOOD SAKE|Fagraea gracilipes|Felimida luteorosea|Forsythia suspensa|Forsythia viridissima|Fraxinus americana|Fucus vesiculosus|Galium album|Garcinia xipshuanbannaensis|Gardenia jasminoides|Gesneria cardinalis|Gleditsia caspica|Gloeophyllum sp.97022|Gomphostemma crinitum|Gracilaria textorii|Gutierrezia lucida|Haplophyllum ramosissimum|Harungana madagascariensis|Helichrysum graveolens|Helichrysum mixtum|Homo sapiens|Hopea brevipetiolaris|Hortonia floribunda|Humata pectinata|Hymenidium lindleyanum|Illicium verum|Ipomoea purpurea|Iryanthera paraensis|Isatis tinctoria|Isopyrum thalictroides|Kali turgidum|Lactarius vellereus|Lactuca laciniata|Lampranthus sociorum|Lathyrus nissolia|Lejeunea pallescens|Leonurus persicus|Leucetta microrhaphis|Ligustrum lucidum|Lobophytum schoedei|Lophozia floerkei|Lysiana subfalcata|Macaranga peltata|Magnolia sieboldii|Maharanga bicolor|Mappia foetida|Melanargia galathea|Mesembryanthemum tortuosum|Metapenaeus macleayi|Methylobacterium organophilum|Millettia pinnata|Millettia rubiginosa|Monomorium delagoense|Mosla japonica|Nauclea rhynchophylla|Nigrospora sp. PSU-F18|Nigrospora sphaerica|Nocardia pseudobrasiliensis|Nostoc spongiaeforme|Oenanthe fistulosa|Oenanthe javanica|Olea europaea|Ootheca mantidis|Ormosia balansae|Osteospermum hyoseroides|Osteospermum muricatum|Papulaspora immersa|Parablechnum minus|Peltogyne porphyrocardia|Penicillium chrysogenum|Penicillium cyclopium|Penicillium sp.|Peperomia vulcanica|Pertusaria amara|Perymenium mendezii|Phaeolus schweinitzii|Phallusia nigra|Pharbitis nil|Phlogacanthus tubiflorus|Physalis edulis|Picea glauca|Pichia membranifaciens|Picris evae|Pinus brutia var. eldarica|Pinus massoniana|Plagiomnium undulatum|Plantago major|Platycarya strobilacea|Pleione bulbocodioides|Pleione yunnanensis|Polyporus anthracophilus|Premna tomentosa|Pseudeurotium zonatum|Pseudoalteromonas rubra|Ramalina terebrata|Ratibida mexicana|Rehmannia glutinosa|Rhizochalina incrustata|Rhodiola crenulata|Rhodiola crenulata (HOOK.f.et Thoms.) H.OHBA|Rhodiola kirilowii|Rhodiola rosea|Rhodiola sachalinensis|Rhodiola sacra|Ribes nigrum|Roboastra tigris|Rubus phoenicolasius|Russula delica|Sabia japonica|Sagittaria sagittifolia|Salilagenidium callinectes|Sargentodoxa cuneata|Satureja atropatana|Saussurea amara|Saussurea pulchella|Schefflera capitata|Sedum cepaea|Senecio mexicanus|Sesamoides canescens|Sia ferox|Sideritis euboea|Sinopodophyllum emodi (WALL.) YING|Sinopodophyllum hexandrum|Sisyrinchium californicum|Sorbus tianschanica|Stachylidium|Stephania elegans|Stigma croci|Streptomyces AC-2|Streptomyces albospinus RLe7|Streptomyces argenteolus|Streptomyces goshikiensis|Streptomyces olivaceus|Streptomyces pentaticus|Swertia swertopsis|Tarchonanthus camphoratus|Taxus brevifolia|Thea sasanqua|Torricellia tiliifolia|Trichoderma koningi|Tsuga chinensis|Uncaria tomentosa|Urbanodendron verrucosum|Uruparia lanosa|Usnea undulata|Utricularia australis|Vasconcellea cundinamarcensis|Virgilia divaricata|Woodsia manchuriensis

>  <collections>  (213) 
ANPDB|AnalytiCon Discovery NPs|Australian natural products|BIOFACQUIM|CMAUP (cCollective molecular activities of useful plants)|CMNPD|ChEBI NPs|ChemSpider NPs|ConMedNP|EMNPD|FooDB|HIM (Herbal Ingredients in-vivo Metabolism database)|KNApSaCK|Latin America dataset|Marine Natural Products|Mitishamba database|NANPDB (Natural Products from Northern African Sources)|NPASS|NPAtlas|NPEdia|NuBBEDB|Phenol-explorer|Phyto4Health|PubChem NPs|SANCDB|StreptomeDB|Super Natural II|TCMDB-Taiwan (Traditional Chinese Medicine database)|TCMID (Traditional Chinese Medicine Integrated Database)|TIPdb (database of Taiwan indigenous plants)|UNPD (Universal Natural Products Database)|Watermelon

>  <dois>  (213) 
10.1002/cbdv.201000011|10.1007/s10811-013-0171-8|10.1007/s12272-001-1276-4|10.1016/j.jchromb.2013.08.025|10.1016/j.micres.2018.04.005|10.1016/j.phytol.2013.09.001|10.1016/s0014-5793(00)01216-3|10.1021/acs.jafc.8b02066|10.1021/acs.jnatprod.8b01054|10.1021/jf070082b|10.1021/np1005345|10.1021/np1008976|10.1021/np800192f|10.1021/np900483g|10.1039/np9941100355|10.1080/10286020.2011.597384|10.1080/14786419.2017.1385020

>  <synonyms>  (213) 
Tyrosol|501-94-0|4-(2-Hydroxyethyl)phenol|4-Hydroxyphenethyl alcohol|4-Hydroxyphenylethanol|4-Hydroxybenzeneethanol|Benzeneethanol| 4-hydroxy-|p-Tyrosol|Tyrosol C|2-(4-Hydroxyphenyl)ethyl Alcohol|MFCD00002902|NSC 59876|UNII-1AK4MU3SNX|1AK4MU3SNX|EINECS 207-930-8|beta-(4-Hydroxyphenyl)ethanol|CHEBI:1879|p-HPEA|2-(P-HYDROXYPHENYL)ETHANOL|Metoprolol IMpurity 07|4-hydroxy-Benzeneethanol|NSC-59876|CHEMBL53566|DTXSID8060111|HYDROXYPHENETHYL ALCOHOL| P-|n-tyrosol|SMR000857159|para-hydroxyphenylethanol|METOPROLOL TARTRATE IMPURITY G (EP IMPURITY)|METOPROLOL SUCCINATE IMPURITY G (EP IMPURITY)|4-tyrosol|YRL|Tyrosol |(S)|2-(4-Hydroxyphenyl)ethanol (Tyrosol)|TYROSOL MI|bmse000173|4-Hydroxyphenylmethylcarbinol|2-(p-hydroxyphenyl) ethanol|SCHEMBL43838|MLS001332423|Phenethyl alcohol| p-hydroxy-|Ethanol| 2-(4-hydroxyphenyl)|DTXCID7040780|SCHEMBL10620528|2-(4-Hydroxyphenyl)-1-ethanol|HMS2230E12|2-(4-Hydroxyphenyl)ethanol| 98%|BCP34277|HY-N0474|STR02735|BDBM50339585|s3773|AKOS000280287|AC-2493|CCG-266147|CS-W019782|KS-5274|NCGC00246994-01|SY001653|DB-019455|AM20060146|H0720|NS00014657|C06044|EN300-116733|TYROSOL (CONSTITUENT OF RHODIOLA ROSEA)|2-(4-Hydroxyphenyl)ethanol| analytical standard|NSC 59876; p-HPEA;4-Hydroxyphenethyl alcohol|Q402607|F0001-1309|Z1250886919|947D0361-23C6-4863-8346-22AB05108AC5|4-hydroxy-Benzeneethanol;4-Hydroxyphenylethanol;beta-(4-Hydroxyphenyl)ethanol|InChI=1\/C8H10O2\/c9-6-5-7-1-3-8(10)4-2-7\/h1-4|9-10H|5-6H|tyrosol|No Data

>  <cas>  (213) 
501-94-0

$$$$

     RDKit          2D

 21 22  0  0  0  0  0  0  0  0999 V2000
   -3.8249   -2.9073    0.0000 C   0  0  0  0  0  0  0  0  0  0  0  0
   -2.4799   -2.2433    0.0000 O   0  0  0  0  0  0  0  0  0  0  0  0
   -2.3824   -0.7464    0.0000 C   0  0  0  0  0  0  0  0  0  0  0  0
   -3.6300    0.0864    0.0000 C   0  0  0  0  0  0  0  0  0  0  0  0
   -3.5325    1.5832    0.0000 C   0  0  0  0  0  0  0  0  0  0  0  0
   -4.7801    2.4160    0.0000 O   0  0  0  0  0  0  0  0  0  0  0  0
   -2.1875    2.2472    0.0000 C   0  0  0  0  0  0  0  0  0  0  0  0
   -0.9399    1.4144    0.0000 C   0  0  0  0  0  0  0  0  0  0  0  0
   -1.0374   -0.0824    0.0000 C   0  0  0  0  0  0  0  0  0  0  0  0
   -0.3734   -1.4274    0.0000 C   0  0  0  0  0  0  0  0  0  0  0  0
   -1.5007   -2.4169    0.0000 O   0  0  0  0  0  0  0  0  0  0  0  0
    0.8742   -2.2602    0.0000 O   0  0  0  0  0  0  0  0  0  0  0  0
    2.3710   -2.3577    0.0000 C   0  0  0  0  0  0  0  0  0  0  0  0
    2.6643   -3.8288    0.0000 C   0  0  0  0  0  0  0  0  0  0  0  0
    3.7160   -1.6937    0.0000 C   0  0  0  0  0  0  0  0  0  0  0  0
    4.5489   -0.4461    0.0000 C   0  0  0  0  0  0  0  0  0  0  0  0
    4.6463    1.0507    0.0000 C   0  0  0  0  0  0  0  0  0  0  0  0
    3.9823    2.3957    0.0000 C   0  0  0  0  0  0  0  0  0  0  0  0
    2.7347    3.2285    0.0000 C   0  0  0  0  0  0  0  0  0  0  0  0
    1.2379    3.3260    0.0000 C   0  0  0  0  0  0  0  0  0  0  0  0
   -0.1071    2.6620    0.0000 C   0  0  0  0  0  0  0  0  0  0  0  0
  1  2  1  0
  2  3  1  0
  3  4  2  0
  4  5  1  0
  5  6  1  0
  5  7  2  0
  7  8  1  0
  8  9  2  0
  9 10  1  0
 10 11  2  0
 10 12  1  0
 12 13  1  0
 13 14  1  6
 13 15  1  0
 15 16  1  0
 16 17  1  0
 17 18  1  0
 18 19  1  0
 19 20  1  0
 20 21  1  0
  9  3  1  0
 21  8  1  0
M  END
>  <identifier>  (214) 
CNP0215208.1

>  <canonical_smiles>  (214) 
COC1=CC(O)=CC2=C1C(=O)O[C@@H](C)CCCCCCC2

>  <standard_inchi>  (214) 
InChI=1S/C17H24O4/c1-12-8-6-4-3-5-7-9-13-10-14(18)11-15(20-2)16(13)17(19)21-12/h10-12,18H,3-9H2,1-2H3/t12-/m0/s1

>  <standard_inchi_key>  (214) 
OKWRDLQBKAOJNC-LBPRGKRZSA-N

>  <name>  (214) 
lasiodiplodin

>  <iupac_name>  (214) 
(4~{S})-14-hydroxy-16-methoxy-4-methyl-3-oxabicyclo[10.4.0]hexadeca-1(12),13,15-trien-2-one

>  <annotation_level>  (214) 
5

>  <total_atom_count>  (214) 
45

>  <heavy_atom_count>  (214) 
21

>  <molecular_weight>  (214) 
292.38

>  <exact_molecular_weight>  (214) 
292.16746

>  <molecular_formula>  (214) 
C17H24O4

>  <alogp>  (214) 
3.84

>  <topological_polar_surface_area>  (214) 
55.76

>  <rotatable_bond_count>  (214) 
1

>  <hydrogen_bond_acceptors>  (214) 
4

>  <hydrogen_bond_donors>  (214) 
1

>  <hydrogen_bond_acceptors_lipinski>  (214) 
4

>  <hydrogen_bond_donors_lipinski>  (214) 
1

>  <lipinski_rule_of_five_violations>  (214) 
0

>  <aromatic_rings_count>  (214) 
1

>  <qed_drug_likeliness>  (214) 
0.80

>  <formal_charge>  (214) 
0

>  <fractioncsp3>  (214) 
0.59

>  <number_of_minimal_rings>  (214) 
2

>  <van_der_walls_volume>  (214) 
282.69

>  <contains_sugar>  (214) 
False

>  <contains_ring_sugars>  (214) 
False

>  <contains_linear_sugars>  (214) 
False

>  <murcko_framework>  (214) 
O1Cc2ccccc2CCCCCCCC1

>  <np_likeness>  (214) 
1.36

>  <chemical_class>  (214) 
Phenol ethers

>  <chemical_sub_class>  (214) 
Anisoles

>  <chemical_super_class>  (214) 
Benzenoids

>  <direct_parent_classification>  (214) 
Anisoles

>  <np_classifier_pathway>  (214) 
Polyketides

>  <np_classifier_superclass>  (214) 
Macrolides

>  <np_classifier_class>  (214) 
Zearalenones

>  <np_classifier_is_glycoside>  (214) 
False

>  <organisms>  (214) 
Actinopyga agassizi|Aplidium tabascum|Arcyria denudata|Aster bellidiastrum|Botryosphaeria rhodina|Chromatium okenii|Daemonorops draco|Dolomiaea souliei|Erycibe expansa|Eucalyptus camaldulensis|Euphorbia splendens|Excoecaria acerifolia|Fusarium avenaceum|Fusarium sacchari|Garcinia mangostana|Garrya laurifolia|Goupia glabra|Halimodendron halodendron|Helipterum gnaphaloides|Jatropha gossypiifolia|Laggera alata|Leptogorgia sarmentosa|Lithothamnion corallioides|Lonicera hypoleuca|Medinilla magnifica|Mesua ferrea|Monopteryx uaucu|Moringa oleifera|Myelochroa aurulenta|Nicotiana sylvestris|Onobrychis bobrovii|Papaver persicum|Petteria ramentacea|Podospora curvicolla|Poria selecta|Scleronephthya pallida|Senecio cathcartensis|Senecio vellereus|Sequoia sempervirens|Serpocaulon triseriale|Streptomyces alboniger|Strychnos angustiflora|Trametes cinnabarina|Trifolium strepens|Wibelia divaricata

>  <collections>  (214) 
BIOFACQUIM|CMAUP (cCollective molecular activities of useful plants)|EMNPD|KNApSaCK|Latin America dataset|NPASS|Super Natural II|ZINC NP

>  <dois>  (214) 
10.1016/j.bmc.2006.09.024|10.1016/j.bmcl.2016.08.019|10.1021/jf070082b

>  <synonyms>  (214) 
32885-81-7|(4S)-14-hydroxy-16-methoxy-4-methyl-3-oxabicyclo10.4.0hexadeca-1(12)|13|15-trien-2-one|(S)-Lasiodiplodin|CHEMBL393258|SCHEMBL23484270|HY-N3401|AKOS032948907|FS-9431|CS-0024135|Q59287150|(3S)-12-hydroxy-14-methoxy-3-methyl-3|4|5|6|7|8|9|10-octahydro-1H-2-benzoxacyclododecin-1-one|Lasiodiplodin

>  <cas>  (214) 
32885-81-7

$$$$

     RDKit          2D

 29 32  0  0  0  0  0  0  0  0999 V2000
   -4.7033    4.1635    0.0000 C   0  0  0  0  0  0  0  0  0  0  0  0
   -4.4022    2.6941    0.0000 C   0  0  0  0  0  0  0  0  0  0  0  0
   -2.9790    2.2201    0.0000 C   0  0  0  0  0  0  0  0  0  0  0  0
   -5.5242    1.6986    0.0000 C   0  0  0  0  0  0  0  0  0  0  0  0
   -6.9474    2.1725    0.0000 C   0  0  0  0  0  0  0  0  0  0  0  0
   -5.2231    0.2291    0.0000 C   0  0  0  0  0  0  0  0  0  0  0  0
   -3.7999   -0.2448    0.0000 C   0  0  0  0  0  0  0  0  0  0  0  0
   -3.4988   -1.7143    0.0000 C   0  0  0  0  0  0  0  0  0  0  0  0
   -4.6209   -2.7098    0.0000 C   0  0  0  0  0  0  0  0  0  0  0  0
   -2.0757   -2.1883    0.0000 C   0  0  0  0  0  0  0  0  0  0  0  0
   -1.6226   -3.6182    0.0000 C   0  0  0  0  0  0  0  0  0  0  0  0
   -0.1226   -3.6292    0.0000 C   0  0  0  0  0  0  0  0  0  0  0  0
    0.3513   -2.2060    0.0000 C   0  0  0  0  0  0  0  0  0  0  0  0
    1.7261   -1.6060    0.0000 C   0  0  0  0  0  0  0  0  0  0  0  0
    2.9331   -2.4965    0.0000 C   0  0  0  0  0  0  0  0  0  0  0  0
    4.3078   -1.8965    0.0000 C   0  0  0  0  0  0  0  0  0  0  0  0
    4.4756   -0.4059    0.0000 C   0  0  0  0  0  0  0  0  0  0  0  0
    5.8503    0.1942    0.0000 C   0  0  0  0  0  0  0  0  0  0  0  0
    6.0180    1.6848    0.0000 C   0  0  0  0  0  0  0  0  0  0  0  0
    7.3928    2.2848    0.0000 O   0  0  0  0  0  0  0  0  0  0  0  0
    4.8110    2.5753    0.0000 C   0  0  0  0  0  0  0  0  0  0  0  0
    3.4362    1.9753    0.0000 C   0  0  0  0  0  0  0  0  0  0  0  0
    3.2685    0.4847    0.0000 C   0  0  0  0  0  0  0  0  0  0  0  0
    2.0615    1.3752    0.0000 C   0  0  0  0  0  0  0  0  0  0  0  0
    1.8938   -0.1154    0.0000 C   0  0  0  0  0  0  0  0  0  0  0  0
    0.6867    0.7751    0.0000 C   0  0  0  0  0  0  0  0  0  0  0  0
   -0.6880    0.1751    0.0000 C   0  0  0  0  0  0  0  0  0  0  0  0
   -0.8557   -1.3155    0.0000 C   0  0  0  0  0  0  0  0  0  0  0  0
   -2.1492   -0.5560    0.0000 C   0  0  0  0  0  0  0  0  0  0  0  0
  1  2  1  0
  2  3  1  0
  2  4  1  0
  4  5  1  6
  4  6  1  0
  6  7  2  0
  7  8  1  0
  8  9  1  6
  8 10  1  0
 10 11  1  6
 11 12  1  0
 13 12  1  6
 13 14  1  0
 14 15  2  0
 15 16  1  0
 16 17  2  0
 17 18  1  0
 18 19  1  0
 19 20  1  6
 19 21  1  0
 21 22  1  0
 22 23  1  0
 23 24  1  6
 23 25  1  0
 25 26  1  6
 26 27  1  0
 27 28  1  0
 28 29  1  6
 28 10  1  0
 28 13  1  0
 25 14  1  0
 23 17  1  0
M  END
>  <identifier>  (215) 
CNP0274636.1

>  <canonical_smiles>  (215) 
CC(C)[C@@H](C)/C=C/[C@@H](C)[C@H]1CC[C@H]2C3=CC=C4C[C@@H](O)CC[C@]4(C)[C@H]3CC[C@]12C

>  <standard_inchi>  (215) 
InChI=1S/C28H44O/c1-18(2)19(3)7-8-20(4)24-11-12-25-23-10-9-21-17-22(29)13-15-27(21,5)26(23)14-16-28(24,25)6/h7-10,18-20,22,24-26,29H,11-17H2,1-6H3/b8-7+/t19-,20+,22-,24+,25-,26-,27-,28+/m0/s1

>  <standard_inchi_key>  (215) 
DNVPQKQSNYMLRS-APGDWVJJSA-N

>  <name>  (215) 
ERGOSTEROL

>  <iupac_name>  (215) 
(3~{S},9~{S},10~{R},13~{R},14~{R},17~{R})-10,13-dimethyl-17-[(~{E},1~{R},4~{R})-1,4,5-trimethylhex-2-enyl]-2,3,4,9,11,12,14,15,16,17-decahydro-1~{H}-cyclopenta[a]phenanthren-3-ol

>  <annotation_level>  (215) 
5

>  <total_atom_count>  (215) 
73

>  <heavy_atom_count>  (215) 
29

>  <molecular_weight>  (215) 
396.66

>  <exact_molecular_weight>  (215) 
396.33922

>  <molecular_formula>  (215) 
C28H44O

>  <alogp>  (215) 
7.33

>  <topological_polar_surface_area>  (215) 
20.23

>  <rotatable_bond_count>  (215) 
4

>  <hydrogen_bond_acceptors>  (215) 
1

>  <hydrogen_bond_donors>  (215) 
1

>  <hydrogen_bond_acceptors_lipinski>  (215) 
1

>  <hydrogen_bond_donors_lipinski>  (215) 
1

>  <lipinski_rule_of_five_violations>  (215) 
1

>  <aromatic_rings_count>  (215) 
0

>  <qed_drug_likeliness>  (215) 
0.49

>  <formal_charge>  (215) 
0

>  <fractioncsp3>  (215) 
0.79

>  <number_of_minimal_rings>  (215) 
4

>  <van_der_walls_volume>  (215) 
417.77

>  <contains_sugar>  (215) 
False

>  <contains_ring_sugars>  (215) 
False

>  <contains_linear_sugars>  (215) 
False

>  <murcko_framework>  (215) 
C=1C=C2C(CCC3CCCC23)C4C1CCCC4

>  <np_likeness>  (215) 
3.04

>  <chemical_class>  (215) 
Steroids and steroid derivatives

>  <chemical_sub_class>  (215) 
Ergostane steroids

>  <chemical_super_class>  (215) 
Lipids and lipid-like molecules

>  <direct_parent_classification>  (215) 
Ergosterols and derivatives

>  <np_classifier_pathway>  (215) 
Terpenoids

>  <np_classifier_superclass>  (215) 
Steroids

>  <np_classifier_class>  (215) 
Ergostane steroids

>  <np_classifier_is_glycoside>  (215) 
False

>  <organisms>  (215) 
Acacia confusa|Acanthella acuta|Acherontia atropus|Achillea macrophylla|Adesmia boronioides|Agaricus campestris|Agathosma mundtii|Agave aurea|Ajuga spectabilis|Alstroemeria revoluta|Amaranthus tricolor|Anabaena laxa|Artemisia lanata|Aspergillus austroafricanus|Aspergillus flavipes|Aspergillus ochraceus|Astragalus tragacantha|Baccharoides adoensis|Baphia nitida|Botryosphaeria rhodina|Callistemon viminalis|Canarium schweinfurthii|Cassia reticulata|Castanopsis fissa|Chaetomium arcuatum|Chaetomium brasiliense|Chaetomium globosum|Chaetomium longirostre|Cirsium oleraceum|Cissus pallidiflorus|Coleonema album|Coleus frederici|Coltricia cinnamomea|Cordyceps sinensis|Cosmospora sp. + Magnaporthe oryzae|Cotoneaster simonsii|Crataegus davisii|Crinum erubescens|Croton ruizianus|Cupressus lawsoniana|Davallia mariesii|Diospyros ferrea|Dracocephalum heterophyllum|Elaeagnus glabra|Emilia sonchifolia|Encephalartos altensteinii|Eremophila latrobei|Eria foetida|Erica arborea|Erythrina suberosa|Eunicella stricta|Eupatorium havanense|Euphorbia granulata|Euphorbia kamerunica|Euphorbia marginata|Excoecaria oppositifolia|Flavoparmelia euplecta|Fomes officinalis|Gama farinosum|Ganoderma lucidum|Ganoderma sinense|Gardenia collinsae|Ginkgo biloba|Glycosmis craibii|Grindelia acutifolia|Guanomyces polythrix|Gymnosporia senegalensis|Halocynthia aurantium|Hibiscus sabdariffa|Homo sapiens|Humulus lupulus|Hypocrella|Ircinia oros|Isodon lihsienensis|Jungermannia hyalina|Kobresia nepalensis|Libanotis intermedia|Ligularia muliensis|Litsea aciculata|Litsea pulchella|Macaranga conifera|Mallotus philippensis|Marrubium alysson|Melampodium heterophyllum|Microdiplodia|Microdiplodia sp.|Murex brandaris|Myrmica sabuleti|Mytilus edulis|Nectandra reticulata|Neonectria obtusispora|Nicotiana cavicola|Nuphar lutea|Nymphaea ampla|Ophiocordyceps sinensis|Oxytropis muricata|Paliurus ramosissimus|Pausinystalia mayumbensis|Penicillium olsonii|Pentzia incana|Perilla frutescens var. arguta|Phoebe clemensii|Phomopsis archeri|Pinus pinaster|Plectranthus grandidentatus|Polyporus cretaceus|Polyporus umbellatus|Pothos chinensis|Prangos pabularia|Pronephrium triphyllum|Remijia bicolorata|Rhizophora apiculata|Rhodiola rosea|Saccharomyces cerevisiae|Sarcodon scabrosus|Sargassum kjellmanianum|Selliguea feei|Shuteria involucrata var. vestita|Sidnyum turbinatum|Simaba multiflora|Sinocalamus affinis|Siphula decumbens|Sphaeria macula|Stevia chamaedrys|Stomatanthes corumbensis|Streptomyces anandii H41-59|Streptomyces cattleya|Stylocheilus longicaudus|Tacca aspera|Taiwanofungus camphoratus|Teucrium oxylepis|Trifolium subterraneum|Trillium camschatcense|Ursinia abrotanifolia|Viburnum orientale|Viscum album|Viscum coloratum|Westerdykella multispora|Xenorhabdus bovienii|Xylaria|Xylaria sp.|Yarrowia lipolytica|Yucca baccata|two Aspergillus sp. strains

>  <collections>  (215) 
ANPDB|Australian natural products|BIOFACQUIM|CMAUP (cCollective molecular activities of useful plants)|ChEBI NPs|DrugBankNP|EMNPD|Latin America dataset|NANPDB (Natural Products from Northern African Sources)|NPASS|Phyto4Health|SANCDB|StreptomeDB|Super Natural II|TCMDB-Taiwan (Traditional Chinese Medicine database)|VietHerb|ZINC NP

>  <dois>  (215) 
10.1016/0308-8146(84)90008-6|10.1016/j.biotechadv.2020.107521|10.1016/j.bmcl.2012.02.031|10.1021/jf070082b|10.1071/ch9722511|10.1080/14786419.2015.1053089|10.1186/2191-2858-2-9|10.3390/md14050084

>  <synonyms>  (215) 
57-87-4|Provitamin D2|Ergosterin|Ergosta-5|7|22-trien-3-ol| (3b|22E)-|UNII-Z30RAY509F|CCRIS 7220|HSDB 395|Z30RAY509F|CHEBI:16933|24-Methylcholesta-5|7|22-trien-3beta-ol|Ergosta-5|7|22-trien-3beta-ol|EINECS 200-352-7|24alpha-Methyl-22E-dehydrocholesterol|(22E|24S)-24-methylcholesta-5|7|22-trien-3beta-ol|AI3-18876|5|7|22-Ergostatrien-3beta-ol|DTXSID90878679|3beta-Hydroxy-5|7|22-ergostatriene|(22E)-Ergosta-5|7|22-trien-3.beta.-ol|(3beta|22E)-Ergosta-5|7|22-trien-3-ol|Ergosterol (Provitamin D2)|ERGOSTEROL (USP-RS)|ERGOSTEROL USP-RS|Pro Vitamin D2|D2| Pro-Vitamin|ERGOCALCIFEROL IMPURITY B (EP IMPURITY)|ergosta-5|7|22-trien-3-ol|NSC62791|(3S|9S|10R|13R|14R|17R)-10|13-dimethyl-17-(E|1R|4R)-1|4|5-trimethylhex-2-enyl-2|3|4|9|11|12|14|15|16|17-decahydro-1H-cyclopentaaphenanthren-3-ol|MFCD00003623|Ergosterol| >=75%|ergosta-5:6|7:8|22:23-trien-3-ol|ERGOSTEROL MI|ERGOSTEROL HSDB|ERGOSTEROL INCI|bmse000494|SCHEMBL43194|MEGxm0_000450|CHEMBL1232562|ACon0_000429|ACon1_000637|DTXCID201016721|Ergosterol| >=95.0% (HPLC)|HY-N0181|BDBM50378884|LMST01030093|s2297|AKOS015918128|AC-8370|DB04038|DS-4956|(24R)-Ergosta-5|7|22-trien-3b-ol|NCGC00168889-01|(3S|9S|10R|13R|14R|17R)-17-((2R|5R|E)-5|6-dimethylhept-3-en-2-yl)-10|13-dimethyl-2|3|4|9|10|11|12|13|14|15|16|17-dodecahydro-1H-cyclopentaaphenanthren-3-ol|14-((2E)(1R|4R)-1|4|5-trimethylhex-2-enyl)(1S|5S|2R|11R|14R|15R)-2|15-dimethyl tetracyclo8.7.0.0<2|7>.0<11|15>heptadeca-7|9-dien-5-ol|CS-0007890|NS00008818|DELTA-5|7|22-ERGOSTATRIEN-3BETA-OL|C01694|EN300-21680273|Q143263|45ED0A4C-6FDA-443F-B886-D6C805A76AF2|Ergosterol| 10 mg\/mL in chloroform| analytical standard|(3beta|14beta|17alpha|22E)-ergosta-5|7|22-trien-3-ol|Ergosterol| European Pharmacopoeia (EP) Reference Standard|Ergosterol| United States Pharmacopeia (USP) Reference Standard|ERGOSTEROL (CONSTITUENT OF GANODERMA LUCIDUM FRUITING BODY)|Ergosterol| Pharmaceutical Secondary Standard; Certified Reference Material|(1R|3aR|7S|9aR|9bS|11aR)-1-(2R|3E|5R)-5|6-dimethylhept-3-en-2-yl-9a|11a-dimethyl-1H|2H|3H|3aH|6H|7H|8H|9H|9aH|9bH|10H|11H|11aH-cyclopentaaphenanthren-7-ol|Ergosterol

>  <cas>  (215) 
57-87-4

$$$$

     RDKit          2D

 24 26  0  0  0  0  0  0  0  0999 V2000
    6.6022   -1.4108    0.0000 C   0  0  0  0  0  0  0  0  0  0  0  0
    5.2749   -0.7121    0.0000 C   0  0  0  0  0  0  0  0  0  0  0  0
    4.0061   -1.5122    0.0000 C   0  0  0  0  0  0  0  0  0  0  0  0
    2.6788   -0.8135    0.0000 C   0  0  0  0  0  0  0  0  0  0  0  0
    1.4100   -1.6136    0.0000 C   0  0  0  0  0  0  0  0  0  0  0  0
    1.4685   -3.1125    0.0000 O   0  0  0  0  0  0  0  0  0  0  0  0
    0.0827   -0.9149    0.0000 C   0  0  0  0  0  0  0  0  0  0  0  0
   -1.1861   -1.7151    0.0000 O   0  0  0  0  0  0  0  0  0  0  0  0
   -2.5134   -1.0163    0.0000 C   0  0  0  0  0  0  0  0  0  0  0  0
   -3.8589   -1.6795    0.0000 O   0  0  0  0  0  0  0  0  0  0  0  0
   -4.9053   -0.6048    0.0000 C   0  0  0  0  0  0  0  0  0  0  0  0
   -6.3899   -0.8197    0.0000 C   0  0  0  0  0  0  0  0  0  0  0  0
   -7.3182    0.3585    0.0000 O   0  0  0  0  0  0  0  0  0  0  0  0
   -4.2066    0.7225    0.0000 C   0  0  0  0  0  0  0  0  0  0  0  0
   -4.8698    2.0680    0.0000 O   0  0  0  0  0  0  0  0  0  0  0  0
   -2.7283    0.4682    0.0000 C   0  0  0  0  0  0  0  0  0  0  0  0
   -1.6537    1.5146    0.0000 O   0  0  0  0  0  0  0  0  0  0  0  0
    0.0241    0.5839    0.0000 C   0  0  0  0  0  0  0  0  0  0  0  0
    1.2929    1.3841    0.0000 C   0  0  0  0  0  0  0  0  0  0  0  0
    1.2343    2.8829    0.0000 O   0  0  0  0  0  0  0  0  0  0  0  0
    2.6202    0.6854    0.0000 C   0  0  0  0  0  0  0  0  0  0  0  0
    3.8890    1.4855    0.0000 C   0  0  0  0  0  0  0  0  0  0  0  0
    3.8304    2.9844    0.0000 O   0  0  0  0  0  0  0  0  0  0  0  0
    5.2163    0.7868    0.0000 O   0  0  0  0  0  0  0  0  0  0  0  0
  2  1  1  6
  2  3  1  0
  3  4  1  0
  4  5  2  0
  5  6  1  0
  5  7  1  0
  7  8  1  0
  9  8  1  1
  9 10  1  0
 10 11  1  0
 11 12  1  6
 12 13  1  0
 11 14  1  0
 14 15  1  1
 14 16  1  0
 16 17  1  1
  7 18  2  0
 18 19  1  0
 19 20  1  0
 19 21  2  0
 21 22  1  0
 22 23  2  0
 22 24  1  0
 24  2  1  0
 21  4  1  0
 16  9  1  0
M  END
>  <identifier>  (216) 
CNP0363402.1

>  <canonical_smiles>  (216) 
C[C@@H]1CC2=C(O)C(O[C@H]3O[C@H](CO)[C@@H](O)[C@H]3O)=CC(O)=C2C(=O)O1

>  <standard_inchi>  (216) 
InChI=1S/C15H18O9/c1-5-2-6-10(14(21)22-5)7(17)3-8(11(6)18)23-15-13(20)12(19)9(4-16)24-15/h3,5,9,12-13,15-20H,2,4H2,1H3/t5-,9-,12-,13-,15+/m1/s1

>  <standard_inchi_key>  (216) 
GUNXKIKUNNXJKN-NKLJSFOLSA-N

>  <name>  (216) 
Flavoroseoside

>  <iupac_name>  (216) 
(3~{R})-6-[(2~{R},3~{R},4~{S},5~{R})-3,4-dihydroxy-5-(hydroxymethyl)tetrahydrofuran-2-yl]oxy-5,8-dihydroxy-3-methyl-isochroman-1-one

>  <annotation_level>  (216) 
5

>  <total_atom_count>  (216) 
42

>  <heavy_atom_count>  (216) 
24

>  <molecular_weight>  (216) 
342.3

>  <exact_molecular_weight>  (216) 
342.09508

>  <molecular_formula>  (216) 
C15H18O9

>  <alogp>  (216) 
-0.98

>  <topological_polar_surface_area>  (216) 
145.91

>  <rotatable_bond_count>  (216) 
3

>  <hydrogen_bond_acceptors>  (216) 
9

>  <hydrogen_bond_donors>  (216) 
5

>  <hydrogen_bond_acceptors_lipinski>  (216) 
9

>  <hydrogen_bond_donors_lipinski>  (216) 
5

>  <lipinski_rule_of_five_violations>  (216) 
0

>  <aromatic_rings_count>  (216) 
1

>  <qed_drug_likeliness>  (216) 
0.35

>  <formal_charge>  (216) 
0

>  <fractioncsp3>  (216) 
0.53

>  <number_of_minimal_rings>  (216) 
3

>  <van_der_walls_volume>  (216) 
281.98

>  <contains_sugar>  (216) 
True

>  <contains_ring_sugars>  (216) 
True

>  <contains_linear_sugars>  (216) 
False

>  <murcko_framework>  (216) 
O1Cc2ccc(OC3OCCC3)cc2CC1

>  <np_likeness>  (216) 
2.69

>  <chemical_class>  (216) 
Benzopyrans

>  <chemical_sub_class>  (216) 
2-benzopyrans

>  <chemical_super_class>  (216) 
Organoheterocyclic compounds

>  <direct_parent_classification>  (216) 
2-benzopyrans

>  <np_classifier_pathway>  (216) 
Shikimates and Phenylpropanoids

>  <np_classifier_superclass>  (216) 
Coumarins

>  <np_classifier_class>  (216) 
Isocoumarins

>  <np_classifier_is_glycoside>  (216) 
True

>  <organisms>  (216) 
Malbranchea flavorosea

>  <collections>  (216) 
BIOFACQUIM|Latin America dataset|NPAtlas

>  <dois>  (216) 
10.1021/acs.jnatprod.6b00977

>  <synonyms>  (216) 
CHEBI:206555|(3R)-6-(2R|3R|4S|5R)-3|4-dihydroxy-5-(hydroxymethyl)oxolan-2-yloxy-5|8-dihydroxy-3-methyl-3|4-dihydroisochromen-1-one|Flavoroseoside

>  <cas>  (216) 
nan

$$$$

     RDKit          2D

 79 84  0  0  0  0  0  0  0  0999 V2000
   -7.5236   -3.9695    0.0000 C   0  0  0  0  0  0  0  0  0  0  0  0
   -7.4549   -2.4710    0.0000 C   0  0  0  0  0  0  0  0  0  0  0  0
   -6.1229   -1.7814    0.0000 C   0  0  0  0  0  0  0  0  0  0  0  0
   -6.0541   -0.2829    0.0000 C   0  0  0  0  0  0  0  0  0  0  0  0
   -7.3174    0.5258    0.0000 C   0  0  0  0  0  0  0  0  0  0  0  0
   -8.6494   -0.1639    0.0000 C   0  0  0  0  0  0  0  0  0  0  0  0
   -9.9127    0.6449    0.0000 C   0  0  0  0  0  0  0  0  0  0  0  0
  -11.2448   -0.0448    0.0000 C   0  0  0  0  0  0  0  0  0  0  0  0
  -12.5081    0.7640    0.0000 C   0  0  0  0  0  0  0  0  0  0  0  0
  -13.8401    0.0743    0.0000 C   0  0  0  0  0  0  0  0  0  0  0  0
  -15.1034    0.8830    0.0000 C   0  0  0  0  0  0  0  0  0  0  0  0
  -16.4355    0.1934    0.0000 C   0  0  0  0  0  0  0  0  0  0  0  0
  -17.6988    1.0021    0.0000 C   0  0  0  0  0  0  0  0  0  0  0  0
  -19.0308    0.3124    0.0000 C   0  0  0  0  0  0  0  0  0  0  0  0
  -19.0996   -1.1860    0.0000 O   0  0  0  0  0  0  0  0  0  0  0  0
  -20.2941    1.1212    0.0000 O   0  0  0  0  0  0  0  0  0  0  0  0
   -4.7221    0.4067    0.0000 O   0  0  0  0  0  0  0  0  0  0  0  0
   -4.6533    1.9052    0.0000 C   0  0  0  0  0  0  0  0  0  0  0  0
   -5.9166    2.7139    0.0000 O   0  0  0  0  0  0  0  0  0  0  0  0
   -5.8479    4.2123    0.0000 C   0  0  0  0  0  0  0  0  0  0  0  0
   -7.1112    5.0211    0.0000 C   0  0  0  0  0  0  0  0  0  0  0  0
   -4.5158    4.9020    0.0000 C   0  0  0  0  0  0  0  0  0  0  0  0
   -4.4471    6.4004    0.0000 O   0  0  0  0  0  0  0  0  0  0  0  0
   -3.2525    4.0932    0.0000 C   0  0  0  0  0  0  0  0  0  0  0  0
   -1.9205    4.7829    0.0000 O   0  0  0  0  0  0  0  0  0  0  0  0
   -3.3213    2.5948    0.0000 C   0  0  0  0  0  0  0  0  0  0  0  0
   -2.0580    1.7861    0.0000 O   0  0  0  0  0  0  0  0  0  0  0  0
   -2.1267    0.2876    0.0000 C   0  0  0  0  0  0  0  0  0  0  0  0
   -3.4588   -0.4020    0.0000 O   0  0  0  0  0  0  0  0  0  0  0  0
   -3.5275   -1.9004    0.0000 C   0  0  0  0  0  0  0  0  0  0  0  0
   -4.8596   -2.5901    0.0000 C   0  0  0  0  0  0  0  0  0  0  0  0
   -4.9283   -4.0885    0.0000 O   0  0  0  0  0  0  0  0  0  0  0  0
   -2.2642   -2.7092    0.0000 C   0  0  0  0  0  0  0  0  0  0  0  0
   -2.3330   -4.2076    0.0000 O   0  0  0  0  0  0  0  0  0  0  0  0
   -0.9322   -2.0195    0.0000 C   0  0  0  0  0  0  0  0  0  0  0  0
    0.3311   -2.8283    0.0000 O   0  0  0  0  0  0  0  0  0  0  0  0
   -0.8634   -0.5211    0.0000 C   0  0  0  0  0  0  0  0  0  0  0  0
    0.4686    0.1686    0.0000 O   0  0  0  0  0  0  0  0  0  0  0  0
    1.7319   -0.6402    0.0000 C   0  0  0  0  0  0  0  0  0  0  0  0
    1.6632   -2.1386    0.0000 O   0  0  0  0  0  0  0  0  0  0  0  0
    2.9265   -2.9474    0.0000 C   0  0  0  0  0  0  0  0  0  0  0  0
    2.8577   -4.4458    0.0000 C   0  0  0  0  0  0  0  0  0  0  0  0
    4.2585   -2.2577    0.0000 C   0  0  0  0  0  0  0  0  0  0  0  0
    5.5218   -3.0664    0.0000 O   0  0  0  0  0  0  0  0  0  0  0  0
    5.4531   -4.5649    0.0000 C   0  0  0  0  0  0  0  0  0  0  0  0
    4.1210   -5.2545    0.0000 O   0  0  0  0  0  0  0  0  0  0  0  0
    4.0523   -6.7530    0.0000 C   0  0  0  0  0  0  0  0  0  0  0  0
    2.7202   -7.4426    0.0000 C   0  0  0  0  0  0  0  0  0  0  0  0
    5.3156   -7.5617    0.0000 C   0  0  0  0  0  0  0  0  0  0  0  0
    5.2468   -9.0601    0.0000 O   0  0  0  0  0  0  0  0  0  0  0  0
    6.6476   -6.8720    0.0000 C   0  0  0  0  0  0  0  0  0  0  0  0
    7.9109   -7.6808    0.0000 O   0  0  0  0  0  0  0  0  0  0  0  0
    6.7164   -5.3736    0.0000 C   0  0  0  0  0  0  0  0  0  0  0  0
    8.0484   -4.6839    0.0000 O   0  0  0  0  0  0  0  0  0  0  0  0
    4.3273   -0.7593    0.0000 C   0  0  0  0  0  0  0  0  0  0  0  0
    5.6593   -0.0696    0.0000 O   0  0  0  0  0  0  0  0  0  0  0  0
    5.7281    1.4288    0.0000 C   0  0  0  0  0  0  0  0  0  0  0  0
    4.4648    2.2376    0.0000 O   0  0  0  0  0  0  0  0  0  0  0  0
    4.5335    3.7360    0.0000 C   0  0  0  0  0  0  0  0  0  0  0  0
    3.2702    4.5448    0.0000 C   0  0  0  0  0  0  0  0  0  0  0  0
    3.3390    6.0432    0.0000 O   0  0  0  0  0  0  0  0  0  0  0  0
    5.8656    4.4257    0.0000 C   0  0  0  0  0  0  0  0  0  0  0  0
    5.9343    5.9241    0.0000 O   0  0  0  0  0  0  0  0  0  0  0  0
    7.1289    3.6169    0.0000 C   0  0  0  0  0  0  0  0  0  0  0  0
    8.4609    4.3066    0.0000 O   0  0  0  0  0  0  0  0  0  0  0  0
    7.0601    2.1185    0.0000 C   0  0  0  0  0  0  0  0  0  0  0  0
    8.3234    1.3098    0.0000 O   0  0  0  0  0  0  0  0  0  0  0  0
    9.6555    1.9994    0.0000 C   0  0  0  0  0  0  0  0  0  0  0  0
    9.7242    3.4979    0.0000 O   0  0  0  0  0  0  0  0  0  0  0  0
   11.0563    4.1875    0.0000 C   0  0  0  0  0  0  0  0  0  0  0  0
   11.1250    5.6860    0.0000 C   0  0  0  0  0  0  0  0  0  0  0  0
   12.3196    3.3788    0.0000 C   0  0  0  0  0  0  0  0  0  0  0  0
   13.6516    4.0685    0.0000 O   0  0  0  0  0  0  0  0  0  0  0  0
   12.2508    1.8804    0.0000 C   0  0  0  0  0  0  0  0  0  0  0  0
   13.5141    1.0716    0.0000 O   0  0  0  0  0  0  0  0  0  0  0  0
   10.9188    1.1907    0.0000 C   0  0  0  0  0  0  0  0  0  0  0  0
   10.8500   -0.3077    0.0000 O   0  0  0  0  0  0  0  0  0  0  0  0
    3.0640    0.0495    0.0000 C   0  0  0  0  0  0  0  0  0  0  0  0
    3.1327    1.5479    0.0000 O   0  0  0  0  0  0  0  0  0  0  0  0
  1  2  1  0
  2  3  1  0
  3  4  1  0
  4  5  1  0
  5  6  1  0
  6  7  1  0
  7  8  1  0
  8  9  1  0
  9 10  1  0
 10 11  1  0
 11 12  1  0
 12 13  1  0
 13 14  1  0
 14 15  2  0
 14 16  1  0
  4 17  1  0
 18 17  1  6
 18 19  1  0
 19 20  1  0
 20 21  1  6
 20 22  1  0
 22 23  1  1
 22 24  1  0
 24 25  1  6
 24 26  1  0
 26 27  1  1
 28 27  1  1
 28 29  1  0
 29 30  1  0
 30 31  1  1
 31 32  1  0
 30 33  1  0
 33 34  1  6
 33 35  1  0
 35 36  1  1
 35 37  1  0
 37 38  1  6
 39 38  1  1
 39 40  1  0
 40 41  1  0
 41 42  1  6
 41 43  1  0
 43 44  1  1
 45 44  1  1
 45 46  1  0
 46 47  1  0
 47 48  1  1
 47 49  1  0
 49 50  1  1
 49 51  1  0
 51 52  1  1
 51 53  1  0
 53 54  1  6
 43 55  1  0
 55 56  1  6
 57 56  1  6
 57 58  1  0
 58 59  1  0
 59 60  1  6
 60 61  1  0
 59 62  1  0
 62 63  1  1
 62 64  1  0
 64 65  1  6
 64 66  1  0
 66 67  1  1
 68 67  1  6
 68 69  1  0
 69 70  1  0
 70 71  1  6
 70 72  1  0
 72 73  1  1
 72 74  1  0
 74 75  1  6
 74 76  1  0
 76 77  1  1
 55 78  1  0
 78 79  1  6
 26 18  1  0
 37 28  1  0
 78 39  1  0
 53 45  1  0
 66 57  1  0
 76 68  1  0
M  END
>  <identifier>  (217) 
CNP0299747.1

>  <canonical_smiles>  (217) 
CCCC(CCCCCCCCCC(=O)O)O[C@@H]1O[C@H](C)[C@@H](O)[C@H](O)[C@H]1O[C@@H]1O[C@H](CO)[C@@H](O)[C@H](O)[C@H]1O[C@@H]1O[C@@H](C)[C@H](O[C@@H]2O[C@H](C)[C@H](O)[C@H](O)[C@H]2O)[C@@H](O[C@@H]2O[C@H](CO)[C@@H](O)[C@H](O)[C@H]2O[C@@H]2O[C@H](C)[C@@H](O)[C@H](O)[C@H]2O)[C@H]1O

>  <standard_inchi>  (217) 
InChI=1S/C50H88O29/c1-6-14-23(15-12-10-8-7-9-11-13-16-26(53)54)72-48-42(34(62)29(57)21(4)70-48)79-50-44(36(64)31(59)25(18-52)74-50)78-47-39(67)41(40(22(5)71-47)75-45-37(65)32(60)27(55)19(2)68-45)76-49-43(35(63)30(58)24(17-51)73-49)77-46-38(66)33(61)28(56)20(3)69-46/h19-25,27-52,55-67H,6-18H2,1-5H3,(H,53,54)/t19-,20-,21-,22+,23?,24-,25-,27+,28-,29-,30-,31-,32+,33+,34+,35+,36+,37-,38-,39-,40+,41+,42-,43-,44-,45+,46+,47+,48+,49+,50+/m1/s1

>  <standard_inchi_key>  (217) 
AQAYWDCXQVWWTA-LQISDYHUSA-N

>  <name>  (217) 
nan

>  <iupac_name>  (217) 
11-[(2~{R},3~{R},4~{S},5~{S},6~{R})-3-[(2~{S},3~{R},4~{S},5~{S},6~{R})-3-[(2~{S},3~{R},4~{S},5~{S},6~{S})-4-[(2~{S},3~{R},4~{S},5~{S},6~{R})-4,5-dihydroxy-6-(hydroxymethyl)-3-[(2~{S},3~{R},4~{S},5~{S},6~{R})-3,4,5-trihydroxy-6-methyl-tetrahydropyran-2-yl]oxy-tetrahydropyran-2-yl]oxy-3-hydroxy-6-methyl-5-[(2~{S},3~{R},4~{S},5~{R},6~{R})-3,4,5-trihydroxy-6-methyl-tetrahydropyran-2-yl]oxy-tetrahydropyran-2-yl]oxy-4,5-dihydroxy-6-(hydroxymethyl)tetrahydropyran-2-yl]oxy-4,5-dihydroxy-6-methyl-tetrahydropyran-2-yl]oxytetradecanoic acid

>  <annotation_level>  (217) 
5

>  <total_atom_count>  (217) 
167

>  <heavy_atom_count>  (217) 
79

>  <molecular_weight>  (217) 
1153.23

>  <exact_molecular_weight>  (217) 
1152.54113

>  <molecular_formula>  (217) 
C50H88O29

>  <alogp>  (217) 
-5.20

>  <topological_polar_surface_area>  (217) 
451.51

>  <rotatable_bond_count>  (217) 
26

>  <hydrogen_bond_acceptors>  (217) 
28

>  <hydrogen_bond_donors>  (217) 
16

>  <hydrogen_bond_acceptors_lipinski>  (217) 
28

>  <hydrogen_bond_donors_lipinski>  (217) 
16

>  <lipinski_rule_of_five_violations>  (217) 
3

>  <aromatic_rings_count>  (217) 
0

>  <qed_drug_likeliness>  (217) 
0.04

>  <formal_charge>  (217) 
0

>  <fractioncsp3>  (217) 
0.98

>  <number_of_minimal_rings>  (217) 
6

>  <van_der_walls_volume>  (217) 
1016.35

>  <contains_sugar>  (217) 
True

>  <contains_ring_sugars>  (217) 
True

>  <contains_linear_sugars>  (217) 
False

>  <murcko_framework>  (217) 
O1CCCC(OC2OCCCC2OC3OCC(OC4OCCCC4)C(OC5OCCCC5OC6OCCCC6)C3)C1

>  <np_likeness>  (217) 
0.98

>  <chemical_class>  (217) 
Saccharolipids

>  <chemical_sub_class>  (217) 
Saccharolipids

>  <chemical_super_class>  (217) 
Lipids and lipid-like molecules

>  <direct_parent_classification>  (217) 
Saccharolipids

>  <np_classifier_pathway>  (217) 
Fatty acids

>  <np_classifier_superclass>  (217) 
Fatty acyls

>  <np_classifier_class>  (217) 
Resin glycosides

>  <np_classifier_is_glycoside>  (217) 
True

>  <organisms>  (217) 
Ipomoea purga

>  <collections>  (217) 
BIOFACQUIM|Latin America dataset

>  <dois>  (217) 
10.1021/np060295f

>  <synonyms>  (217) 
Purgic acid A

>  <cas>  (217) 
nan

$$$$

     RDKit          2D

 81 86  0  0  0  0  0  0  0  0999 V2000
   -8.8298   -5.8395    0.0000 C   0  0  0  0  0  0  0  0  0  0  0  0
   -8.7295   -4.3429    0.0000 C   0  0  0  0  0  0  0  0  0  0  0  0
   -7.3832   -3.6814    0.0000 C   0  0  0  0  0  0  0  0  0  0  0  0
   -7.2830   -2.1847    0.0000 C   0  0  0  0  0  0  0  0  0  0  0  0
   -5.9367   -1.5232    0.0000 C   0  0  0  0  0  0  0  0  0  0  0  0
   -5.8364   -0.0266    0.0000 C   0  0  0  0  0  0  0  0  0  0  0  0
   -7.0824    0.8086    0.0000 C   0  0  0  0  0  0  0  0  0  0  0  0
   -8.4287    0.1471    0.0000 C   0  0  0  0  0  0  0  0  0  0  0  0
   -9.6747    0.9822    0.0000 C   0  0  0  0  0  0  0  0  0  0  0  0
  -11.0210    0.3207    0.0000 C   0  0  0  0  0  0  0  0  0  0  0  0
  -12.2670    1.1559    0.0000 C   0  0  0  0  0  0  0  0  0  0  0  0
  -13.6132    0.4944    0.0000 C   0  0  0  0  0  0  0  0  0  0  0  0
  -14.8592    1.3296    0.0000 C   0  0  0  0  0  0  0  0  0  0  0  0
  -16.2055    0.6681    0.0000 C   0  0  0  0  0  0  0  0  0  0  0  0
  -17.4515    1.5032    0.0000 C   0  0  0  0  0  0  0  0  0  0  0  0
  -18.7978    0.8417    0.0000 C   0  0  0  0  0  0  0  0  0  0  0  0
  -18.8980   -0.6549    0.0000 O   0  0  0  0  0  0  0  0  0  0  0  0
  -20.0438    1.6769    0.0000 O   0  0  0  0  0  0  0  0  0  0  0  0
   -4.4902    0.6349    0.0000 O   0  0  0  0  0  0  0  0  0  0  0  0
   -4.3899    2.1315    0.0000 C   0  0  0  0  0  0  0  0  0  0  0  0
   -5.6359    2.9667    0.0000 O   0  0  0  0  0  0  0  0  0  0  0  0
   -5.5357    4.4633    0.0000 C   0  0  0  0  0  0  0  0  0  0  0  0
   -6.7817    5.2985    0.0000 C   0  0  0  0  0  0  0  0  0  0  0  0
   -4.1894    5.1248    0.0000 C   0  0  0  0  0  0  0  0  0  0  0  0
   -4.0891    6.6215    0.0000 O   0  0  0  0  0  0  0  0  0  0  0  0
   -2.9434    4.2897    0.0000 C   0  0  0  0  0  0  0  0  0  0  0  0
   -1.5971    4.9512    0.0000 O   0  0  0  0  0  0  0  0  0  0  0  0
   -3.0437    2.7930    0.0000 C   0  0  0  0  0  0  0  0  0  0  0  0
   -1.7977    1.9579    0.0000 O   0  0  0  0  0  0  0  0  0  0  0  0
   -1.8979    0.4612    0.0000 C   0  0  0  0  0  0  0  0  0  0  0  0
   -3.2442   -0.2003    0.0000 O   0  0  0  0  0  0  0  0  0  0  0  0
   -3.3444   -1.6969    0.0000 C   0  0  0  0  0  0  0  0  0  0  0  0
   -4.6907   -2.3584    0.0000 C   0  0  0  0  0  0  0  0  0  0  0  0
   -4.7910   -3.8550    0.0000 O   0  0  0  0  0  0  0  0  0  0  0  0
   -2.0984   -2.5321    0.0000 C   0  0  0  0  0  0  0  0  0  0  0  0
   -2.1987   -4.0287    0.0000 O   0  0  0  0  0  0  0  0  0  0  0  0
   -0.7522   -1.8706    0.0000 C   0  0  0  0  0  0  0  0  0  0  0  0
    0.4938   -2.7057    0.0000 O   0  0  0  0  0  0  0  0  0  0  0  0
   -0.6519   -0.3739    0.0000 C   0  0  0  0  0  0  0  0  0  0  0  0
    0.6944    0.2876    0.0000 O   0  0  0  0  0  0  0  0  0  0  0  0
    1.9404   -0.5476    0.0000 C   0  0  0  0  0  0  0  0  0  0  0  0
    1.8401   -2.0442    0.0000 O   0  0  0  0  0  0  0  0  0  0  0  0
    3.0861   -2.8794    0.0000 C   0  0  0  0  0  0  0  0  0  0  0  0
    2.9858   -4.3760    0.0000 C   0  0  0  0  0  0  0  0  0  0  0  0
    4.4324   -2.2179    0.0000 C   0  0  0  0  0  0  0  0  0  0  0  0
    5.6784   -3.0531    0.0000 O   0  0  0  0  0  0  0  0  0  0  0  0
    5.5781   -4.5497    0.0000 C   0  0  0  0  0  0  0  0  0  0  0  0
    4.2318   -5.2112    0.0000 O   0  0  0  0  0  0  0  0  0  0  0  0
    4.1316   -6.7078    0.0000 C   0  0  0  0  0  0  0  0  0  0  0  0
    2.7853   -7.3693    0.0000 C   0  0  0  0  0  0  0  0  0  0  0  0
    5.3776   -7.5430    0.0000 C   0  0  0  0  0  0  0  0  0  0  0  0
    5.2773   -9.0396    0.0000 O   0  0  0  0  0  0  0  0  0  0  0  0
    6.7238   -6.8815    0.0000 C   0  0  0  0  0  0  0  0  0  0  0  0
    7.9698   -7.7167    0.0000 O   0  0  0  0  0  0  0  0  0  0  0  0
    6.8241   -5.3849    0.0000 C   0  0  0  0  0  0  0  0  0  0  0  0
    8.1704   -4.7234    0.0000 O   0  0  0  0  0  0  0  0  0  0  0  0
    4.5326   -0.7213    0.0000 C   0  0  0  0  0  0  0  0  0  0  0  0
    5.8789   -0.0598    0.0000 O   0  0  0  0  0  0  0  0  0  0  0  0
    5.9791    1.4369    0.0000 C   0  0  0  0  0  0  0  0  0  0  0  0
    4.7331    2.2720    0.0000 O   0  0  0  0  0  0  0  0  0  0  0  0
    4.8334    3.7687    0.0000 C   0  0  0  0  0  0  0  0  0  0  0  0
    3.5874    4.6038    0.0000 C   0  0  0  0  0  0  0  0  0  0  0  0
    3.6877    6.1005    0.0000 O   0  0  0  0  0  0  0  0  0  0  0  0
    6.1797    4.4302    0.0000 C   0  0  0  0  0  0  0  0  0  0  0  0
    6.2799    5.9268    0.0000 O   0  0  0  0  0  0  0  0  0  0  0  0
    7.4257    3.5950    0.0000 C   0  0  0  0  0  0  0  0  0  0  0  0
    8.7719    4.2565    0.0000 O   0  0  0  0  0  0  0  0  0  0  0  0
    7.3254    2.0984    0.0000 C   0  0  0  0  0  0  0  0  0  0  0  0
    8.5714    1.2632    0.0000 O   0  0  0  0  0  0  0  0  0  0  0  0
    9.9177    1.9247    0.0000 C   0  0  0  0  0  0  0  0  0  0  0  0
   10.0179    3.4213    0.0000 O   0  0  0  0  0  0  0  0  0  0  0  0
   11.3642    4.0828    0.0000 C   0  0  0  0  0  0  0  0  0  0  0  0
   11.4645    5.5795    0.0000 C   0  0  0  0  0  0  0  0  0  0  0  0
   12.6102    3.2477    0.0000 C   0  0  0  0  0  0  0  0  0  0  0  0
   13.9565    3.9092    0.0000 O   0  0  0  0  0  0  0  0  0  0  0  0
   12.5099    1.7510    0.0000 C   0  0  0  0  0  0  0  0  0  0  0  0
   13.7559    0.9159    0.0000 O   0  0  0  0  0  0  0  0  0  0  0  0
   11.1637    1.0895    0.0000 C   0  0  0  0  0  0  0  0  0  0  0  0
   11.0634   -0.4071    0.0000 O   0  0  0  0  0  0  0  0  0  0  0  0
    3.2866    0.1139    0.0000 C   0  0  0  0  0  0  0  0  0  0  0  0
    3.3869    1.6105    0.0000 O   0  0  0  0  0  0  0  0  0  0  0  0
  1  2  1  0
  2  3  1  0
  3  4  1  0
  4  5  1  0
  5  6  1  0
  6  7  1  0
  7  8  1  0
  8  9  1  0
  9 10  1  0
 10 11  1  0
 11 12  1  0
 12 13  1  0
 13 14  1  0
 14 15  1  0
 15 16  1  0
 16 17  2  0
 16 18  1  0
  6 19  1  0
 20 19  1  6
 20 21  1  0
 21 22  1  0
 22 23  1  6
 22 24  1  0
 24 25  1  1
 24 26  1  0
 26 27  1  6
 26 28  1  0
 28 29  1  1
 30 29  1  1
 30 31  1  0
 31 32  1  0
 32 33  1  1
 33 34  1  0
 32 35  1  0
 35 36  1  6
 35 37  1  0
 37 38  1  1
 37 39  1  0
 39 40  1  6
 41 40  1  1
 41 42  1  0
 42 43  1  0
 43 44  1  6
 43 45  1  0
 45 46  1  1
 47 46  1  1
 47 48  1  0
 48 49  1  0
 49 50  1  1
 49 51  1  0
 51 52  1  1
 51 53  1  0
 53 54  1  1
 53 55  1  0
 55 56  1  6
 45 57  1  0
 57 58  1  6
 59 58  1  6
 59 60  1  0
 60 61  1  0
 61 62  1  6
 62 63  1  0
 61 64  1  0
 64 65  1  1
 64 66  1  0
 66 67  1  6
 66 68  1  0
 68 69  1  1
 70 69  1  6
 70 71  1  0
 71 72  1  0
 72 73  1  6
 72 74  1  0
 74 75  1  1
 74 76  1  0
 76 77  1  6
 76 78  1  0
 78 79  1  1
 57 80  1  0
 80 81  1  6
 28 20  1  0
 39 30  1  0
 80 41  1  0
 55 47  1  0
 68 59  1  0
 78 70  1  0
M  END
>  <identifier>  (218) 
CNP0264578.1

>  <canonical_smiles>  (218) 
CCCCCC(CCCCCCCCCC(=O)O)O[C@@H]1O[C@H](C)[C@@H](O)[C@H](O)[C@H]1O[C@@H]1O[C@H](CO)[C@@H](O)[C@H](O)[C@H]1O[C@@H]1O[C@@H](C)[C@H](O[C@@H]2O[C@H](C)[C@H](O)[C@H](O)[C@H]2O)[C@@H](O[C@@H]2O[C@H](CO)[C@@H](O)[C@H](O)[C@H]2O[C@@H]2O[C@H](C)[C@@H](O)[C@H](O)[C@H]2O)[C@H]1O

>  <standard_inchi>  (218) 
InChI=1S/C52H92O29/c1-6-7-13-16-25(17-14-11-9-8-10-12-15-18-28(55)56)74-50-44(36(64)31(59)23(4)72-50)81-52-46(38(66)33(61)27(20-54)76-52)80-49-41(69)43(42(24(5)73-49)77-47-39(67)34(62)29(57)21(2)70-47)78-51-45(37(65)32(60)26(19-53)75-51)79-48-40(68)35(63)30(58)22(3)71-48/h21-27,29-54,57-69H,6-20H2,1-5H3,(H,55,56)/t21-,22-,23-,24+,25?,26-,27-,29+,30-,31-,32-,33-,34+,35+,36+,37+,38+,39-,40-,41-,42+,43+,44-,45-,46-,47+,48+,49+,50+,51+,52+/m1/s1

>  <standard_inchi_key>  (218) 
YTQXXUYELDKIKL-IAUJMIQNSA-N

>  <name>  (218) 
nan

>  <iupac_name>  (218) 
11-[(2~{R},3~{R},4~{S},5~{S},6~{R})-3-[(2~{S},3~{R},4~{S},5~{S},6~{R})-3-[(2~{S},3~{R},4~{S},5~{S},6~{S})-4-[(2~{S},3~{R},4~{S},5~{S},6~{R})-4,5-dihydroxy-6-(hydroxymethyl)-3-[(2~{S},3~{R},4~{S},5~{S},6~{R})-3,4,5-trihydroxy-6-methyl-tetrahydropyran-2-yl]oxy-tetrahydropyran-2-yl]oxy-3-hydroxy-6-methyl-5-[(2~{S},3~{R},4~{S},5~{R},6~{R})-3,4,5-trihydroxy-6-methyl-tetrahydropyran-2-yl]oxy-tetrahydropyran-2-yl]oxy-4,5-dihydroxy-6-(hydroxymethyl)tetrahydropyran-2-yl]oxy-4,5-dihydroxy-6-methyl-tetrahydropyran-2-yl]oxyhexadecanoic acid

>  <annotation_level>  (218) 
5

>  <total_atom_count>  (218) 
173

>  <heavy_atom_count>  (218) 
81

>  <molecular_weight>  (218) 
1181.28

>  <exact_molecular_weight>  (218) 
1180.57243

>  <molecular_formula>  (218) 
C52H92O29

>  <alogp>  (218) 
-4.42

>  <topological_polar_surface_area>  (218) 
451.51

>  <rotatable_bond_count>  (218) 
28

>  <hydrogen_bond_acceptors>  (218) 
28

>  <hydrogen_bond_donors>  (218) 
16

>  <hydrogen_bond_acceptors_lipinski>  (218) 
28

>  <hydrogen_bond_donors_lipinski>  (218) 
16

>  <lipinski_rule_of_five_violations>  (218) 
3

>  <aromatic_rings_count>  (218) 
0

>  <qed_drug_likeliness>  (218) 
0.03

>  <formal_charge>  (218) 
0

>  <fractioncsp3>  (218) 
0.98

>  <number_of_minimal_rings>  (218) 
6

>  <van_der_walls_volume>  (218) 
1049.97

>  <contains_sugar>  (218) 
True

>  <contains_ring_sugars>  (218) 
True

>  <contains_linear_sugars>  (218) 
False

>  <murcko_framework>  (218) 
O1CCCC(OC2OCCCC2OC3OCC(OC4OCCCC4)C(OC5OCCCC5OC6OCCCC6)C3)C1

>  <np_likeness>  (218) 
0.93

>  <chemical_class>  (218) 
Saccharolipids

>  <chemical_sub_class>  (218) 
Saccharolipids

>  <chemical_super_class>  (218) 
Lipids and lipid-like molecules

>  <direct_parent_classification>  (218) 
Saccharolipids

>  <np_classifier_pathway>  (218) 
Fatty acids

>  <np_classifier_superclass>  (218) 
Fatty acyls

>  <np_classifier_class>  (218) 
Resin glycosides

>  <np_classifier_is_glycoside>  (218) 
True

>  <organisms>  (218) 
Ipomoea purga

>  <collections>  (218) 
BIOFACQUIM|Latin America dataset

>  <dois>  (218) 
10.1021/np060295f

>  <synonyms>  (218) 
Purgic acid B

>  <cas>  (218) 
nan

$$$$

     RDKit          2D

 60 63  0  0  0  0  0  0  0  0999 V2000
   -5.6355   -6.1906    0.0000 C   0  0  0  0  0  0  0  0  0  0  0  0
   -5.6981   -4.6919    0.0000 C   0  0  0  0  0  0  0  0  0  0  0  0
   -4.4315   -3.8884    0.0000 C   0  0  0  0  0  0  0  0  0  0  0  0
   -4.4941   -2.3897    0.0000 C   0  0  0  0  0  0  0  0  0  0  0  0
   -3.2275   -1.5861    0.0000 C   0  0  0  0  0  0  0  0  0  0  0  0
   -3.2901   -0.0874    0.0000 C   0  0  0  0  0  0  0  0  0  0  0  0
   -4.6193    0.6077    0.0000 C   0  0  0  0  0  0  0  0  0  0  0  0
   -5.8859   -0.1958    0.0000 C   0  0  0  0  0  0  0  0  0  0  0  0
   -7.2151    0.4993    0.0000 C   0  0  0  0  0  0  0  0  0  0  0  0
   -8.4817   -0.3043    0.0000 C   0  0  0  0  0  0  0  0  0  0  0  0
   -9.8110    0.3908    0.0000 C   0  0  0  0  0  0  0  0  0  0  0  0
  -11.0776   -0.4127    0.0000 C   0  0  0  0  0  0  0  0  0  0  0  0
  -12.4068    0.2824    0.0000 C   0  0  0  0  0  0  0  0  0  0  0  0
  -13.6734   -0.5212    0.0000 C   0  0  0  0  0  0  0  0  0  0  0  0
  -15.0026    0.1739    0.0000 C   0  0  0  0  0  0  0  0  0  0  0  0
  -16.2692   -0.6296    0.0000 C   0  0  0  0  0  0  0  0  0  0  0  0
  -16.2066   -2.1283    0.0000 O   0  0  0  0  0  0  0  0  0  0  0  0
  -17.5984    0.0655    0.0000 O   0  0  0  0  0  0  0  0  0  0  0  0
   -2.0235    0.7162    0.0000 O   0  0  0  0  0  0  0  0  0  0  0  0
   -2.0861    2.2149    0.0000 C   0  0  0  0  0  0  0  0  0  0  0  0
   -3.4153    2.9100    0.0000 O   0  0  0  0  0  0  0  0  0  0  0  0
   -3.4779    4.4087    0.0000 C   0  0  0  0  0  0  0  0  0  0  0  0
   -4.8072    5.1038    0.0000 C   0  0  0  0  0  0  0  0  0  0  0  0
   -2.2113    5.2122    0.0000 C   0  0  0  0  0  0  0  0  0  0  0  0
   -2.2740    6.7109    0.0000 O   0  0  0  0  0  0  0  0  0  0  0  0
   -0.8821    4.5171    0.0000 C   0  0  0  0  0  0  0  0  0  0  0  0
    0.3845    5.3207    0.0000 O   0  0  0  0  0  0  0  0  0  0  0  0
   -0.8195    3.0184    0.0000 C   0  0  0  0  0  0  0  0  0  0  0  0
    0.5097    2.3233    0.0000 O   0  0  0  0  0  0  0  0  0  0  0  0
    0.5723    0.8246    0.0000 C   0  0  0  0  0  0  0  0  0  0  0  0
   -0.6943    0.0210    0.0000 C   0  0  0  0  0  0  0  0  0  0  0  0
   -0.6317   -1.4777    0.0000 C   0  0  0  0  0  0  0  0  0  0  0  0
   -1.8983   -2.2812    0.0000 C   0  0  0  0  0  0  0  0  0  0  0  0
   -1.8357   -3.7799    0.0000 O   0  0  0  0  0  0  0  0  0  0  0  0
    0.6975   -2.1728    0.0000 C   0  0  0  0  0  0  0  0  0  0  0  0
    0.7601   -3.6715    0.0000 C   0  0  0  0  0  0  0  0  0  0  0  0
    1.9641   -1.3692    0.0000 C   0  0  0  0  0  0  0  0  0  0  0  0
    3.2933   -2.0643    0.0000 O   0  0  0  0  0  0  0  0  0  0  0  0
    1.9015    0.1295    0.0000 C   0  0  0  0  0  0  0  0  0  0  0  0
    3.1681    0.9331    0.0000 O   0  0  0  0  0  0  0  0  0  0  0  0
    4.4973    0.2379    0.0000 C   0  0  0  0  0  0  0  0  0  0  0  0
    4.5599   -1.2608    0.0000 O   0  0  0  0  0  0  0  0  0  0  0  0
    5.8891   -1.9559    0.0000 C   0  0  0  0  0  0  0  0  0  0  0  0
    5.9518   -3.4546    0.0000 C   0  0  0  0  0  0  0  0  0  0  0  0
    7.1557   -1.1523    0.0000 C   0  0  0  0  0  0  0  0  0  0  0  0
    8.4850   -1.8474    0.0000 O   0  0  0  0  0  0  0  0  0  0  0  0
    9.7516   -1.0439    0.0000 C   0  0  0  0  0  0  0  0  0  0  0  0
    9.6889    0.4548    0.0000 O   0  0  0  0  0  0  0  0  0  0  0  0
   10.9555    1.2584    0.0000 C   0  0  0  0  0  0  0  0  0  0  0  0
   10.8929    2.7571    0.0000 C   0  0  0  0  0  0  0  0  0  0  0  0
   12.2848    0.5633    0.0000 C   0  0  0  0  0  0  0  0  0  0  0  0
   13.5514    1.3668    0.0000 O   0  0  0  0  0  0  0  0  0  0  0  0
   12.3474   -0.9354    0.0000 C   0  0  0  0  0  0  0  0  0  0  0  0
   13.6766   -1.6306    0.0000 O   0  0  0  0  0  0  0  0  0  0  0  0
   11.0808   -1.7390    0.0000 C   0  0  0  0  0  0  0  0  0  0  0  0
   11.1434   -3.2377    0.0000 O   0  0  0  0  0  0  0  0  0  0  0  0
    7.0931    0.3464    0.0000 C   0  0  0  0  0  0  0  0  0  0  0  0
    8.3597    1.1499    0.0000 O   0  0  0  0  0  0  0  0  0  0  0  0
    5.7639    1.0415    0.0000 C   0  0  0  0  0  0  0  0  0  0  0  0
    5.7013    2.5402    0.0000 O   0  0  0  0  0  0  0  0  0  0  0  0
  1  2  1  0
  2  3  1  0
  3  4  1  0
  4  5  1  0
  5  6  1  0
  6  7  1  0
  7  8  1  0
  8  9  1  0
  9 10  1  0
 10 11  1  0
 11 12  1  0
 12 13  1  0
 13 14  1  0
 14 15  1  0
 15 16  1  0
 16 17  2  0
 16 18  1  0
  6 19  1  0
 20 19  1  6
 20 21  1  0
 21 22  1  0
 22 23  1  6
 22 24  1  0
 24 25  1  1
 24 26  1  0
 26 27  1  6
 26 28  1  0
 28 29  1  1
 30 29  1  1
 30 31  1  0
 31 32  1  0
 32 33  1  1
 33 34  1  0
 32 35  1  0
 35 36  1  6
 35 37  1  0
 37 38  1  1
 37 39  1  0
 39 40  1  6
 41 40  1  1
 41 42  1  0
 42 43  1  0
 43 44  1  6
 43 45  1  0
 45 46  1  1
 47 46  1  6
 47 48  1  0
 48 49  1  0
 49 50  1  6
 49 51  1  0
 51 52  1  1
 51 53  1  0
 53 54  1  6
 53 55  1  0
 55 56  1  1
 45 57  1  0
 57 58  1  6
 57 59  1  0
 59 60  1  6
 28 20  1  0
 39 30  1  0
 59 41  1  0
 55 47  1  0
M  END
>  <identifier>  (219) 
CNP0080325.1

>  <canonical_smiles>  (219) 
CCCCCC(CCCCCCCCCC(=O)O)O[C@@H]1O[C@H](C)[C@@H](O)[C@H](O)[C@H]1O[C@@H]1C[C@H](CO)[C@@H](C)[C@H](O)[C@H]1O[C@@H]1O[C@@H](C)[C@H](O[C@@H]2O[C@H](C)[C@@H](O)[C@H](O)[C@H]2O)[C@@H](O)[C@H]1O

>  <standard_inchi>  (219) 
InChI=1S/C42H76O18/c1-6-7-13-16-26(17-14-11-9-8-10-12-15-18-28(44)45)57-42-39(33(50)31(48)23(4)55-42)58-27-19-25(20-43)21(2)29(46)38(27)60-41-36(53)34(51)37(24(5)56-41)59-40-35(52)32(49)30(47)22(3)54-40/h21-27,29-43,46-53H,6-20H2,1-5H3,(H,44,45)/t21-,22-,23-,24+,25-,26?,27-,29+,30-,31-,32+,33+,34+,35-,36-,37+,38+,39-,40+,41+,42+/m1/s1

>  <standard_inchi_key>  (219) 
PRRUXSDCUPUYKC-OPMOSEIQSA-N

>  <name>  (219) 
nan

>  <iupac_name>  (219) 
11-[(2~{R},3~{R},4~{S},5~{S},6~{R})-3-[(1~{R},2~{R},3~{S},4~{R},5~{S})-2-[(2~{S},3~{R},4~{S},5~{R},6~{S})-3,4-dihydroxy-6-methyl-5-[(2~{S},3~{R},4~{S},5~{S},6~{R})-3,4,5-trihydroxy-6-methyl-tetrahydropyran-2-yl]oxy-tetrahydropyran-2-yl]oxy-3-hydroxy-5-(hydroxymethyl)-4-methyl-cyclohexoxy]-4,5-dihydroxy-6-methyl-tetrahydropyran-2-yl]oxyhexadecanoic acid

>  <annotation_level>  (219) 
5

>  <total_atom_count>  (219) 
136

>  <heavy_atom_count>  (219) 
60

>  <molecular_weight>  (219) 
869.05

>  <exact_molecular_weight>  (219) 
868.50317

>  <molecular_formula>  (219) 
C42H76O18

>  <alogp>  (219) 
0.84

>  <topological_polar_surface_area>  (219) 
283.98

>  <rotatable_bond_count>  (219) 
23

>  <hydrogen_bond_acceptors>  (219) 
17

>  <hydrogen_bond_donors>  (219) 
10

>  <hydrogen_bond_acceptors_lipinski>  (219) 
17

>  <hydrogen_bond_donors_lipinski>  (219) 
10

>  <lipinski_rule_of_five_violations>  (219) 
3

>  <aromatic_rings_count>  (219) 
0

>  <qed_drug_likeliness>  (219) 
0.06

>  <formal_charge>  (219) 
0

>  <fractioncsp3>  (219) 
0.98

>  <number_of_minimal_rings>  (219) 
4

>  <van_der_walls_volume>  (219) 
811.38

>  <contains_sugar>  (219) 
True

>  <contains_ring_sugars>  (219) 
True

>  <contains_linear_sugars>  (219) 
False

>  <murcko_framework>  (219) 
O1CCCC(OC2CCCCC2OC3OCC(OC4OCCCC4)CC3)C1

>  <np_likeness>  (219) 
1.32

>  <chemical_class>  (219) 
Fatty Acyls

>  <chemical_sub_class>  (219) 
Fatty acids and conjugates

>  <chemical_super_class>  (219) 
Lipids and lipid-like molecules

>  <direct_parent_classification>  (219) 
Long-chain fatty acids

>  <np_classifier_pathway>  (219) 
Fatty acids

>  <np_classifier_superclass>  (219) 
Fatty acyls

>  <np_classifier_class>  (219) 
Resin glycosides

>  <np_classifier_is_glycoside>  (219) 
True

>  <organisms>  (219) 
Ipomoea purga

>  <collections>  (219) 
BIOFACQUIM|Latin America dataset

>  <dois>  (219) 
10.1021/np060295f

>  <synonyms>  (219) 
Scammonic acid A

>  <cas>  (219) 
nan

$$$$

     RDKit          2D

 71 75  0  0  0  0  0  0  0  0999 V2000
   -3.8423   -5.6376    0.0000 C   0  0  0  0  0  0  0  0  0  0  0  0
   -4.5299   -4.3045    0.0000 C   0  0  0  0  0  0  0  0  0  0  0  0
   -3.7192   -3.0425    0.0000 C   0  0  0  0  0  0  0  0  0  0  0  0
   -4.4067   -1.7094    0.0000 C   0  0  0  0  0  0  0  0  0  0  0  0
   -3.5960   -0.4473    0.0000 C   0  0  0  0  0  0  0  0  0  0  0  0
   -4.2836    0.8858    0.0000 C   0  0  0  0  0  0  0  0  0  0  0  0
   -5.7819    0.9569    0.0000 C   0  0  0  0  0  0  0  0  0  0  0  0
   -6.5926   -0.3051    0.0000 C   0  0  0  0  0  0  0  0  0  0  0  0
   -8.0910   -0.2340    0.0000 C   0  0  0  0  0  0  0  0  0  0  0  0
   -8.9017   -1.4961    0.0000 C   0  0  0  0  0  0  0  0  0  0  0  0
  -10.4000   -1.4250    0.0000 C   0  0  0  0  0  0  0  0  0  0  0  0
  -11.2107   -2.6870    0.0000 C   0  0  0  0  0  0  0  0  0  0  0  0
  -12.7090   -2.6159    0.0000 C   0  0  0  0  0  0  0  0  0  0  0  0
  -13.5198   -3.8780    0.0000 C   0  0  0  0  0  0  0  0  0  0  0  0
  -15.0181   -3.8069    0.0000 C   0  0  0  0  0  0  0  0  0  0  0  0
  -15.8288   -5.0689    0.0000 C   0  0  0  0  0  0  0  0  0  0  0  0
  -15.1412   -6.4020    0.0000 O   0  0  0  0  0  0  0  0  0  0  0  0
  -17.3271   -4.9978    0.0000 O   0  0  0  0  0  0  0  0  0  0  0  0
   -3.4729    2.1478    0.0000 O   0  0  0  0  0  0  0  0  0  0  0  0
   -4.1605    3.4810    0.0000 C   0  0  0  0  0  0  0  0  0  0  0  0
   -5.6588    3.5521    0.0000 O   0  0  0  0  0  0  0  0  0  0  0  0
   -6.3464    4.8852    0.0000 C   0  0  0  0  0  0  0  0  0  0  0  0
   -7.8447    4.9563    0.0000 C   0  0  0  0  0  0  0  0  0  0  0  0
   -8.6554    3.6942    0.0000 O   0  0  0  0  0  0  0  0  0  0  0  0
   -5.5357    6.1472    0.0000 C   0  0  0  0  0  0  0  0  0  0  0  0
   -6.2232    7.4803    0.0000 O   0  0  0  0  0  0  0  0  0  0  0  0
   -4.0373    6.0761    0.0000 C   0  0  0  0  0  0  0  0  0  0  0  0
   -3.2266    7.3381    0.0000 O   0  0  0  0  0  0  0  0  0  0  0  0
   -3.3497    4.7430    0.0000 C   0  0  0  0  0  0  0  0  0  0  0  0
   -1.8514    4.6719    0.0000 O   0  0  0  0  0  0  0  0  0  0  0  0
   -1.1638    3.3388    0.0000 C   0  0  0  0  0  0  0  0  0  0  0  0
   -1.9746    2.0767    0.0000 O   0  0  0  0  0  0  0  0  0  0  0  0
   -1.2870    0.7436    0.0000 C   0  0  0  0  0  0  0  0  0  0  0  0
   -2.0977   -0.5184    0.0000 C   0  0  0  0  0  0  0  0  0  0  0  0
    0.2113    0.6725    0.0000 C   0  0  0  0  0  0  0  0  0  0  0  0
    0.8989   -0.6606    0.0000 O   0  0  0  0  0  0  0  0  0  0  0  0
    2.3972   -0.7317    0.0000 C   0  0  0  0  0  0  0  0  0  0  0  0
    3.0848   -2.0648    0.0000 O   0  0  0  0  0  0  0  0  0  0  0  0
    4.5831   -2.1359    0.0000 C   0  0  0  0  0  0  0  0  0  0  0  0
    4.9622   -3.1616    0.0000 C   0  0  0  0  0  0  0  0  0  0  0  0
    5.3939   -0.8739    0.0000 C   0  0  0  0  0  0  0  0  0  0  0  0
    6.8922   -0.9450    0.0000 O   0  0  0  0  0  0  0  0  0  0  0  0
    7.5798   -2.2781    0.0000 C   0  0  0  0  0  0  0  0  0  0  0  0
    9.0781   -2.3492    0.0000 O   0  0  0  0  0  0  0  0  0  0  0  0
    9.7657   -3.6823    0.0000 C   0  0  0  0  0  0  0  0  0  0  0  0
   11.2640   -3.7534    0.0000 C   0  0  0  0  0  0  0  0  0  0  0  0
    8.9550   -4.9443    0.0000 C   0  0  0  0  0  0  0  0  0  0  0  0
    9.6425   -6.2775    0.0000 O   0  0  0  0  0  0  0  0  0  0  0  0
    7.4566   -4.8732    0.0000 C   0  0  0  0  0  0  0  0  0  0  0  0
    6.6459   -6.1353    0.0000 O   0  0  0  0  0  0  0  0  0  0  0  0
    6.7691   -3.5401    0.0000 C   0  0  0  0  0  0  0  0  0  0  0  0
    5.6786   -3.6218    0.0000 O   0  0  0  0  0  0  0  0  0  0  0  0
    4.7063    0.4593    0.0000 C   0  0  0  0  0  0  0  0  0  0  0  0
    5.5170    1.7213    0.0000 O   0  0  0  0  0  0  0  0  0  0  0  0
    7.0153    1.6502    0.0000 C   0  0  0  0  0  0  0  0  0  0  0  0
    7.7029    0.3171    0.0000 O   0  0  0  0  0  0  0  0  0  0  0  0
    9.2012    0.2460    0.0000 C   0  0  0  0  0  0  0  0  0  0  0  0
    9.8888   -1.0871    0.0000 C   0  0  0  0  0  0  0  0  0  0  0  0
    9.6331   -1.8422    0.0000 O   0  0  0  0  0  0  0  0  0  0  0  0
   10.0119    1.5080    0.0000 C   0  0  0  0  0  0  0  0  0  0  0  0
   11.5103    1.4369    0.0000 O   0  0  0  0  0  0  0  0  0  0  0  0
    9.3244    2.8411    0.0000 C   0  0  0  0  0  0  0  0  0  0  0  0
   10.1351    4.1032    0.0000 O   0  0  0  0  0  0  0  0  0  0  0  0
    7.8260    2.9122    0.0000 C   0  0  0  0  0  0  0  0  0  0  0  0
    7.1385    4.2453    0.0000 O   0  0  0  0  0  0  0  0  0  0  0  0
    3.2080    0.5303    0.0000 C   0  0  0  0  0  0  0  0  0  0  0  0
    2.6880    1.9373    0.0000 O   0  0  0  0  0  0  0  0  0  0  0  0
    1.0221    1.9346    0.0000 C   0  0  0  0  0  0  0  0  0  0  0  0
    2.5179    2.0466    0.0000 O   0  0  0  0  0  0  0  0  0  0  0  0
    0.3345    3.2677    0.0000 C   0  0  0  0  0  0  0  0  0  0  0  0
    1.1452    4.5297    0.0000 O   0  0  0  0  0  0  0  0  0  0  0  0
  1  2  1  0
  2  3  1  0
  3  4  1  0
  4  5  1  0
  5  6  1  0
  6  7  1  0
  7  8  1  0
  8  9  1  0
  9 10  1  0
 10 11  1  0
 11 12  1  0
 12 13  1  0
 13 14  1  0
 14 15  1  0
 15 16  1  0
 16 17  2  0
 16 18  1  0
  6 19  1  0
 20 19  1  6
 20 21  1  0
 21 22  1  0
 22 23  1  6
 23 24  1  0
 22 25  1  0
 25 26  1  1
 25 27  1  0
 27 28  1  6
 27 29  1  0
 29 30  1  1
 31 30  1  1
 31 32  1  0
 32 33  1  0
 33 34  1  6
 33 35  1  0
 35 36  1  1
 37 36  1  1
 37 38  1  0
 38 39  1  0
 39 40  1  6
 39 41  1  0
 41 42  1  1
 43 42  1  6
 43 44  1  0
 44 45  1  0
 45 46  1  1
 45 47  1  0
 47 48  1  6
 47 49  1  0
 49 50  1  1
 49 51  1  0
 51 52  1  1
 41 53  1  0
 53 54  1  6
 55 54  1  1
 55 56  1  0
 56 57  1  0
 57 58  1  1
 58 59  1  0
 57 60  1  0
 60 61  1  6
 60 62  1  0
 62 63  1  1
 62 64  1  0
 64 65  1  6
 53 66  1  0
 66 67  1  6
 35 68  1  0
 68 69  1  6
 68 70  1  0
 70 71  1  6
 29 20  1  0
 70 31  1  0
 66 37  1  0
 51 43  1  0
 64 55  1  0
M  END
>  <identifier>  (220) 
CNP0166949.1

>  <canonical_smiles>  (220) 
CCCCCC(CCCCCCCCCC(=O)O)O[C@@H]1O[C@H](CO)[C@@H](O)[C@H](O)[C@H]1O[C@@H]1O[C@@H](C)[C@H](O[C@@H]2O[C@@H](C)[C@H](O[C@@H]3O[C@@H](C)[C@H](O)[C@@H](O)[C@H]3O)[C@@H](O[C@@H]3O[C@H](CO)[C@@H](O)[C@H](O)[C@H]3O)[C@H]2O)[C@@H](O)[C@H]1O

>  <standard_inchi>  (220) 
InChI=1S/C46H82O25/c1-5-6-12-15-23(16-13-10-8-7-9-11-14-17-26(49)50)65-46-41(32(56)29(53)25(19-48)67-46)71-43-36(60)33(57)38(21(3)63-43)68-45-37(61)40(70-44-35(59)31(55)28(52)24(18-47)66-44)39(22(4)64-45)69-42-34(58)30(54)27(51)20(2)62-42/h20-25,27-48,51-61H,5-19H2,1-4H3,(H,49,50)/t20-,21-,22-,23?,24+,25+,27-,28+,29+,30+,31-,32-,33-,34+,35+,36+,37+,38-,39-,40-,41+,42-,43-,44-,45-,46+/m0/s1

>  <standard_inchi_key>  (220) 
LJJIBKCHKKEYAS-OIDCBOCKSA-N

>  <name>  (220) 
nan

>  <iupac_name>  (220) 
11-[(2~{R},3~{R},4~{S},5~{S},6~{R})-3-[(2~{S},3~{R},4~{S},5~{R},6~{S})-3,4-dihydroxy-5-[(2~{S},3~{R},4~{S},5~{S},6~{S})-3-hydroxy-6-methyl-4-[(2~{S},3~{R},4~{S},5~{S},6~{R})-3,4,5-trihydroxy-6-(hydroxymethyl)tetrahydropyran-2-yl]oxy-5-[(2~{S},3~{R},4~{R},5~{R},6~{S})-3,4,5-trihydroxy-6-methyl-tetrahydropyran-2-yl]oxy-tetrahydropyran-2-yl]oxy-6-methyl-tetrahydropyran-2-yl]oxy-4,5-dihydroxy-6-(hydroxymethyl)tetrahydropyran-2-yl]oxyhexadecanoic acid

>  <annotation_level>  (220) 
5

>  <total_atom_count>  (220) 
153

>  <heavy_atom_count>  (220) 
71

>  <molecular_weight>  (220) 
1035.14

>  <exact_molecular_weight>  (220) 
1034.51452

>  <molecular_formula>  (220) 
C46H82O25

>  <alogp>  (220) 
-3.27

>  <topological_polar_surface_area>  (220) 
392.59

>  <rotatable_bond_count>  (220) 
26

>  <hydrogen_bond_acceptors>  (220) 
24

>  <hydrogen_bond_donors>  (220) 
14

>  <hydrogen_bond_acceptors_lipinski>  (220) 
24

>  <hydrogen_bond_donors_lipinski>  (220) 
14

>  <lipinski_rule_of_five_violations>  (220) 
3

>  <aromatic_rings_count>  (220) 
0

>  <qed_drug_likeliness>  (220) 
0.04

>  <formal_charge>  (220) 
0

>  <fractioncsp3>  (220) 
0.98

>  <number_of_minimal_rings>  (220) 
5

>  <van_der_walls_volume>  (220) 
927.50

>  <contains_sugar>  (220) 
True

>  <contains_ring_sugars>  (220) 
True

>  <contains_linear_sugars>  (220) 
False

>  <murcko_framework>  (220) 
O1CCCC(OC2OCC(OC3OCC(OC4OCCCC4)C(OC5OCCCC5)C3)CC2)C1

>  <np_likeness>  (220) 
1.05

>  <chemical_class>  (220) 
Saccharolipids

>  <chemical_sub_class>  (220) 
Saccharolipids

>  <chemical_super_class>  (220) 
Lipids and lipid-like molecules

>  <direct_parent_classification>  (220) 
Saccharolipids

>  <np_classifier_pathway>  (220) 
Fatty acids

>  <np_classifier_superclass>  (220) 
Fatty acyls

>  <np_classifier_class>  (220) 
Resin glycosides

>  <np_classifier_is_glycoside>  (220) 
True

>  <organisms>  (220) 
Ipomoea purga

>  <collections>  (220) 
BIOFACQUIM|Latin America dataset

>  <dois>  (220) 
10.1021/np060295f

>  <synonyms>  (220) 
Operculinic acid B

>  <cas>  (220) 
nan

$$$$

     RDKit          2D

 80 85  0  0  0  0  0  0  0  0999 V2000
   -7.2457   -3.9887    0.0000 C   0  0  0  0  0  0  0  0  0  0  0  0
   -7.1798   -2.4902    0.0000 C   0  0  0  0  0  0  0  0  0  0  0  0
   -5.8491   -1.7979    0.0000 C   0  0  0  0  0  0  0  0  0  0  0  0
   -5.7832   -0.2994    0.0000 C   0  0  0  0  0  0  0  0  0  0  0  0
   -7.0481    0.5069    0.0000 C   0  0  0  0  0  0  0  0  0  0  0  0
   -8.3788   -0.1853    0.0000 C   0  0  0  0  0  0  0  0  0  0  0  0
   -9.6436    0.6211    0.0000 C   0  0  0  0  0  0  0  0  0  0  0  0
  -10.9744   -0.0712    0.0000 C   0  0  0  0  0  0  0  0  0  0  0  0
  -12.2392    0.7352    0.0000 C   0  0  0  0  0  0  0  0  0  0  0  0
  -13.5699    0.0430    0.0000 C   0  0  0  0  0  0  0  0  0  0  0  0
  -14.8348    0.8493    0.0000 C   0  0  0  0  0  0  0  0  0  0  0  0
  -16.1655    0.1571    0.0000 C   0  0  0  0  0  0  0  0  0  0  0  0
  -17.4303    0.9634    0.0000 C   0  0  0  0  0  0  0  0  0  0  0  0
  -18.7611    0.2712    0.0000 C   0  0  0  0  0  0  0  0  0  0  0  0
  -18.8269   -1.2274    0.0000 O   0  0  0  0  0  0  0  0  0  0  0  0
  -20.0259    1.0775    0.0000 O   0  0  0  0  0  0  0  0  0  0  0  0
  -21.3566    0.3853    0.0000 C   0  0  0  0  0  0  0  0  0  0  0  0
   -4.4525    0.3928    0.0000 O   0  0  0  0  0  0  0  0  0  0  0  0
   -4.3866    1.8914    0.0000 C   0  0  0  0  0  0  0  0  0  0  0  0
   -5.6514    2.6977    0.0000 O   0  0  0  0  0  0  0  0  0  0  0  0
   -5.5856    4.1963    0.0000 C   0  0  0  0  0  0  0  0  0  0  0  0
   -6.8504    5.0026    0.0000 C   0  0  0  0  0  0  0  0  0  0  0  0
   -4.2548    4.8885    0.0000 C   0  0  0  0  0  0  0  0  0  0  0  0
   -4.1889    6.3870    0.0000 O   0  0  0  0  0  0  0  0  0  0  0  0
   -2.9900    4.0821    0.0000 C   0  0  0  0  0  0  0  0  0  0  0  0
   -1.6593    4.7744    0.0000 O   0  0  0  0  0  0  0  0  0  0  0  0
   -3.0559    2.5836    0.0000 C   0  0  0  0  0  0  0  0  0  0  0  0
   -1.7910    1.7773    0.0000 O   0  0  0  0  0  0  0  0  0  0  0  0
   -1.8569    0.2787    0.0000 C   0  0  0  0  0  0  0  0  0  0  0  0
   -3.1876   -0.4135    0.0000 O   0  0  0  0  0  0  0  0  0  0  0  0
   -3.2535   -1.9121    0.0000 C   0  0  0  0  0  0  0  0  0  0  0  0
   -4.5843   -2.6043    0.0000 C   0  0  0  0  0  0  0  0  0  0  0  0
   -4.6501   -4.1028    0.0000 O   0  0  0  0  0  0  0  0  0  0  0  0
   -1.9887   -2.7184    0.0000 C   0  0  0  0  0  0  0  0  0  0  0  0
   -2.0546   -4.2170    0.0000 O   0  0  0  0  0  0  0  0  0  0  0  0
   -0.6580   -2.0262    0.0000 C   0  0  0  0  0  0  0  0  0  0  0  0
    0.6069   -2.8325    0.0000 O   0  0  0  0  0  0  0  0  0  0  0  0
   -0.5921   -0.5276    0.0000 C   0  0  0  0  0  0  0  0  0  0  0  0
    0.7387    0.1646    0.0000 O   0  0  0  0  0  0  0  0  0  0  0  0
    2.0035   -0.6417    0.0000 C   0  0  0  0  0  0  0  0  0  0  0  0
    1.9376   -2.1403    0.0000 O   0  0  0  0  0  0  0  0  0  0  0  0
    3.2024   -2.9466    0.0000 C   0  0  0  0  0  0  0  0  0  0  0  0
    3.1366   -4.4452    0.0000 C   0  0  0  0  0  0  0  0  0  0  0  0
    4.5332   -2.2544    0.0000 C   0  0  0  0  0  0  0  0  0  0  0  0
    5.7980   -3.0607    0.0000 O   0  0  0  0  0  0  0  0  0  0  0  0
    5.7321   -4.5593    0.0000 C   0  0  0  0  0  0  0  0  0  0  0  0
    4.4014   -5.2515    0.0000 O   0  0  0  0  0  0  0  0  0  0  0  0
    4.3355   -6.7501    0.0000 C   0  0  0  0  0  0  0  0  0  0  0  0
    3.0048   -7.4423    0.0000 C   0  0  0  0  0  0  0  0  0  0  0  0
    5.6004   -7.5564    0.0000 C   0  0  0  0  0  0  0  0  0  0  0  0
    5.5345   -9.0550    0.0000 O   0  0  0  0  0  0  0  0  0  0  0  0
    6.9311   -6.8642    0.0000 C   0  0  0  0  0  0  0  0  0  0  0  0
    8.1959   -7.6705    0.0000 O   0  0  0  0  0  0  0  0  0  0  0  0
    6.9970   -5.3656    0.0000 C   0  0  0  0  0  0  0  0  0  0  0  0
    8.3277   -4.6734    0.0000 O   0  0  0  0  0  0  0  0  0  0  0  0
    4.5991   -0.7559    0.0000 C   0  0  0  0  0  0  0  0  0  0  0  0
    5.9298   -0.0636    0.0000 O   0  0  0  0  0  0  0  0  0  0  0  0
    5.9957    1.4349    0.0000 C   0  0  0  0  0  0  0  0  0  0  0  0
    4.7308    2.2412    0.0000 O   0  0  0  0  0  0  0  0  0  0  0  0
    4.7967    3.7398    0.0000 C   0  0  0  0  0  0  0  0  0  0  0  0
    3.5319    4.5461    0.0000 C   0  0  0  0  0  0  0  0  0  0  0  0
    3.5978    6.0447    0.0000 O   0  0  0  0  0  0  0  0  0  0  0  0
    6.1274    4.4320    0.0000 C   0  0  0  0  0  0  0  0  0  0  0  0
    6.1933    5.9306    0.0000 O   0  0  0  0  0  0  0  0  0  0  0  0
    7.3923    3.6257    0.0000 C   0  0  0  0  0  0  0  0  0  0  0  0
    8.7230    4.3179    0.0000 O   0  0  0  0  0  0  0  0  0  0  0  0
    7.3264    2.1271    0.0000 C   0  0  0  0  0  0  0  0  0  0  0  0
    8.5912    1.3208    0.0000 O   0  0  0  0  0  0  0  0  0  0  0  0
    9.9220    2.0130    0.0000 C   0  0  0  0  0  0  0  0  0  0  0  0
    9.9879    3.5116    0.0000 O   0  0  0  0  0  0  0  0  0  0  0  0
   11.3186    4.2038    0.0000 C   0  0  0  0  0  0  0  0  0  0  0  0
   11.3845    5.7023    0.0000 C   0  0  0  0  0  0  0  0  0  0  0  0
   12.5834    3.3974    0.0000 C   0  0  0  0  0  0  0  0  0  0  0  0
   13.9142    4.0897    0.0000 O   0  0  0  0  0  0  0  0  0  0  0  0
   12.5175    1.8989    0.0000 C   0  0  0  0  0  0  0  0  0  0  0  0
   13.7824    1.0926    0.0000 O   0  0  0  0  0  0  0  0  0  0  0  0
   11.1868    1.2067    0.0000 C   0  0  0  0  0  0  0  0  0  0  0  0
   11.1209   -0.2919    0.0000 O   0  0  0  0  0  0  0  0  0  0  0  0
    3.3342    0.0505    0.0000 C   0  0  0  0  0  0  0  0  0  0  0  0
    3.4001    1.5490    0.0000 O   0  0  0  0  0  0  0  0  0  0  0  0
  1  2  1  0
  2  3  1  0
  3  4  1  0
  4  5  1  0
  5  6  1  0
  6  7  1  0
  7  8  1  0
  8  9  1  0
  9 10  1  0
 10 11  1  0
 11 12  1  0
 12 13  1  0
 13 14  1  0
 14 15  2  0
 14 16  1  0
 16 17  1  0
  4 18  1  0
 19 18  1  6
 19 20  1  0
 20 21  1  0
 21 22  1  6
 21 23  1  0
 23 24  1  1
 23 25  1  0
 25 26  1  6
 25 27  1  0
 27 28  1  1
 29 28  1  1
 29 30  1  0
 30 31  1  0
 31 32  1  1
 32 33  1  0
 31 34  1  0
 34 35  1  6
 34 36  1  0
 36 37  1  1
 36 38  1  0
 38 39  1  6
 40 39  1  1
 40 41  1  0
 41 42  1  0
 42 43  1  6
 42 44  1  0
 44 45  1  1
 46 45  1  1
 46 47  1  0
 47 48  1  0
 48 49  1  1
 48 50  1  0
 50 51  1  1
 50 52  1  0
 52 53  1  1
 52 54  1  0
 54 55  1  6
 44 56  1  0
 56 57  1  6
 58 57  1  6
 58 59  1  0
 59 60  1  0
 60 61  1  6
 61 62  1  0
 60 63  1  0
 63 64  1  1
 63 65  1  0
 65 66  1  6
 65 67  1  0
 67 68  1  1
 69 68  1  6
 69 70  1  0
 70 71  1  0
 71 72  1  6
 71 73  1  0
 73 74  1  1
 73 75  1  0
 75 76  1  6
 75 77  1  0
 77 78  1  1
 56 79  1  0
 79 80  1  6
 27 19  1  0
 38 29  1  0
 79 40  1  0
 54 46  1  0
 67 58  1  0
 77 69  1  0
M  END
>  <identifier>  (221) 
CNP0436840.1

>  <canonical_smiles>  (221) 
CCCC(CCCCCCCCCC(=O)OC)O[C@@H]1O[C@H](C)[C@@H](O)[C@H](O)[C@H]1O[C@@H]1O[C@H](CO)[C@@H](O)[C@H](O)[C@H]1O[C@@H]1O[C@@H](C)[C@H](O[C@@H]2O[C@H](C)[C@H](O)[C@H](O)[C@H]2O)[C@@H](O[C@@H]2O[C@H](CO)[C@@H](O)[C@H](O)[C@H]2O[C@@H]2O[C@H](C)[C@@H](O)[C@H](O)[C@H]2O)[C@H]1O

>  <standard_inchi>  (221) 
InChI=1S/C51H90O29/c1-7-15-24(16-13-11-9-8-10-12-14-17-27(54)68-6)73-49-43(35(62)30(57)22(4)71-49)80-51-45(37(64)32(59)26(19-53)75-51)79-48-40(67)42(41(23(5)72-48)76-46-38(65)33(60)28(55)20(2)69-46)77-50-44(36(63)31(58)25(18-52)74-50)78-47-39(66)34(61)29(56)21(3)70-47/h20-26,28-53,55-67H,7-19H2,1-6H3/t20-,21-,22-,23+,24?,25-,26-,28+,29-,30-,31-,32-,33+,34+,35+,36+,37+,38-,39-,40-,41+,42+,43-,44-,45-,46+,47+,48+,49+,50+,51+/m1/s1

>  <standard_inchi_key>  (221) 
PDFPOBRYFXGGAJ-QCCFAKKMSA-N

>  <name>  (221) 
nan

>  <iupac_name>  (221) 
methyl 11-[(2~{R},3~{R},4~{S},5~{S},6~{R})-3-[(2~{S},3~{R},4~{S},5~{S},6~{R})-3-[(2~{S},3~{R},4~{S},5~{S},6~{S})-4-[(2~{S},3~{R},4~{S},5~{S},6~{R})-4,5-dihydroxy-6-(hydroxymethyl)-3-[(2~{S},3~{R},4~{S},5~{S},6~{R})-3,4,5-trihydroxy-6-methyl-tetrahydropyran-2-yl]oxy-tetrahydropyran-2-yl]oxy-3-hydroxy-6-methyl-5-[(2~{S},3~{R},4~{S},5~{R},6~{R})-3,4,5-trihydroxy-6-methyl-tetrahydropyran-2-yl]oxy-tetrahydropyran-2-yl]oxy-4,5-dihydroxy-6-(hydroxymethyl)tetrahydropyran-2-yl]oxy-4,5-dihydroxy-6-methyl-tetrahydropyran-2-yl]oxytetradecanoate

>  <annotation_level>  (221) 
5

>  <total_atom_count>  (221) 
170

>  <heavy_atom_count>  (221) 
80

>  <molecular_weight>  (221) 
1167.25

>  <exact_molecular_weight>  (221) 
1166.55678

>  <molecular_formula>  (221) 
C51H90O29

>  <alogp>  (221) 
-5.11

>  <topological_polar_surface_area>  (221) 
440.51

>  <rotatable_bond_count>  (221) 
26

>  <hydrogen_bond_acceptors>  (221) 
29

>  <hydrogen_bond_donors>  (221) 
15

>  <hydrogen_bond_acceptors_lipinski>  (221) 
29

>  <hydrogen_bond_donors_lipinski>  (221) 
15

>  <lipinski_rule_of_five_violations>  (221) 
3

>  <aromatic_rings_count>  (221) 
0

>  <qed_drug_likeliness>  (221) 
0.03

>  <formal_charge>  (221) 
0

>  <fractioncsp3>  (221) 
0.98

>  <number_of_minimal_rings>  (221) 
6

>  <van_der_walls_volume>  (221) 
1028.99

>  <contains_sugar>  (221) 
True

>  <contains_ring_sugars>  (221) 
True

>  <contains_linear_sugars>  (221) 
False

>  <murcko_framework>  (221) 
O1CCCC(OC2OCCCC2OC3OCC(OC4OCCCC4)C(OC5OCCCC5OC6OCCCC6)C3)C1

>  <np_likeness>  (221) 
0.95

>  <chemical_class>  (221) 
Fatty Acyls

>  <chemical_sub_class>  (221) 
Fatty acyl glycosides

>  <chemical_super_class>  (221) 
Lipids and lipid-like molecules

>  <direct_parent_classification>  (221) 
Fatty acyl glycosides of mono- and disaccharides

>  <np_classifier_pathway>  (221) 
Fatty acids

>  <np_classifier_superclass>  (221) 
Fatty acyls

>  <np_classifier_class>  (221) 
Resin glycosides

>  <np_classifier_is_glycoside>  (221) 
True

>  <organisms>  (221) 
Ipomoea purga

>  <collections>  (221) 
BIOFACQUIM|Latin America dataset

>  <dois>  (221) 
10.1021/np060295f

>  <synonyms>  (221) 
Purgic acid A methyl ester

>  <cas>  (221) 
nan

$$$$

     RDKit          2D

 82 87  0  0  0  0  0  0  0  0999 V2000
   -8.5433   -5.8893    0.0000 C   0  0  0  0  0  0  0  0  0  0  0  0
   -8.4495   -4.3922    0.0000 C   0  0  0  0  0  0  0  0  0  0  0  0
   -7.1062   -3.7248    0.0000 C   0  0  0  0  0  0  0  0  0  0  0  0
   -7.0125   -2.2278    0.0000 C   0  0  0  0  0  0  0  0  0  0  0  0
   -5.6691   -1.5604    0.0000 C   0  0  0  0  0  0  0  0  0  0  0  0
   -5.5754   -0.0633    0.0000 C   0  0  0  0  0  0  0  0  0  0  0  0
   -6.8250    0.7664    0.0000 C   0  0  0  0  0  0  0  0  0  0  0  0
   -8.1684    0.0990    0.0000 C   0  0  0  0  0  0  0  0  0  0  0  0
   -9.4180    0.9287    0.0000 C   0  0  0  0  0  0  0  0  0  0  0  0
  -10.7614    0.2613    0.0000 C   0  0  0  0  0  0  0  0  0  0  0  0
  -12.0110    1.0910    0.0000 C   0  0  0  0  0  0  0  0  0  0  0  0
  -13.3544    0.4237    0.0000 C   0  0  0  0  0  0  0  0  0  0  0  0
  -14.6040    1.2534    0.0000 C   0  0  0  0  0  0  0  0  0  0  0  0
  -15.9474    0.5860    0.0000 C   0  0  0  0  0  0  0  0  0  0  0  0
  -17.1970    1.4157    0.0000 C   0  0  0  0  0  0  0  0  0  0  0  0
  -18.5404    0.7484    0.0000 C   0  0  0  0  0  0  0  0  0  0  0  0
  -18.6341   -0.7487    0.0000 O   0  0  0  0  0  0  0  0  0  0  0  0
  -19.7900    1.5781    0.0000 O   0  0  0  0  0  0  0  0  0  0  0  0
  -21.1334    0.9107    0.0000 C   0  0  0  0  0  0  0  0  0  0  0  0
   -4.2320    0.6040    0.0000 O   0  0  0  0  0  0  0  0  0  0  0  0
   -4.1383    2.1011    0.0000 C   0  0  0  0  0  0  0  0  0  0  0  0
   -5.3879    2.9308    0.0000 O   0  0  0  0  0  0  0  0  0  0  0  0
   -5.2942    4.4279    0.0000 C   0  0  0  0  0  0  0  0  0  0  0  0
   -6.5438    5.2576    0.0000 C   0  0  0  0  0  0  0  0  0  0  0  0
   -3.9508    5.0952    0.0000 C   0  0  0  0  0  0  0  0  0  0  0  0
   -3.8571    6.5923    0.0000 O   0  0  0  0  0  0  0  0  0  0  0  0
   -2.7012    4.2655    0.0000 C   0  0  0  0  0  0  0  0  0  0  0  0
   -1.3578    4.9329    0.0000 O   0  0  0  0  0  0  0  0  0  0  0  0
   -2.7949    2.7685    0.0000 C   0  0  0  0  0  0  0  0  0  0  0  0
   -1.5453    1.9388    0.0000 O   0  0  0  0  0  0  0  0  0  0  0  0
   -1.6390    0.4417    0.0000 C   0  0  0  0  0  0  0  0  0  0  0  0
   -2.9824   -0.2257    0.0000 O   0  0  0  0  0  0  0  0  0  0  0  0
   -3.0761   -1.7227    0.0000 C   0  0  0  0  0  0  0  0  0  0  0  0
   -4.4195   -2.3901    0.0000 C   0  0  0  0  0  0  0  0  0  0  0  0
   -4.5132   -3.8872    0.0000 O   0  0  0  0  0  0  0  0  0  0  0  0
   -1.8265   -2.5524    0.0000 C   0  0  0  0  0  0  0  0  0  0  0  0
   -1.9202   -4.0495    0.0000 O   0  0  0  0  0  0  0  0  0  0  0  0
   -0.4831   -1.8851    0.0000 C   0  0  0  0  0  0  0  0  0  0  0  0
    0.7665   -2.7148    0.0000 O   0  0  0  0  0  0  0  0  0  0  0  0
   -0.3894   -0.3880    0.0000 C   0  0  0  0  0  0  0  0  0  0  0  0
    0.9540    0.2794    0.0000 O   0  0  0  0  0  0  0  0  0  0  0  0
    2.2036   -0.5504    0.0000 C   0  0  0  0  0  0  0  0  0  0  0  0
    2.1099   -2.0474    0.0000 O   0  0  0  0  0  0  0  0  0  0  0  0
    3.3595   -2.8771    0.0000 C   0  0  0  0  0  0  0  0  0  0  0  0
    3.2658   -4.3742    0.0000 C   0  0  0  0  0  0  0  0  0  0  0  0
    4.7029   -2.2098    0.0000 C   0  0  0  0  0  0  0  0  0  0  0  0
    5.9525   -3.0395    0.0000 O   0  0  0  0  0  0  0  0  0  0  0  0
    5.8588   -4.5365    0.0000 C   0  0  0  0  0  0  0  0  0  0  0  0
    4.5154   -5.2039    0.0000 O   0  0  0  0  0  0  0  0  0  0  0  0
    4.4217   -6.7010    0.0000 C   0  0  0  0  0  0  0  0  0  0  0  0
    3.0784   -7.3683    0.0000 C   0  0  0  0  0  0  0  0  0  0  0  0
    5.6714   -7.5307    0.0000 C   0  0  0  0  0  0  0  0  0  0  0  0
    5.5776   -9.0277    0.0000 O   0  0  0  0  0  0  0  0  0  0  0  0
    7.0147   -6.8633    0.0000 C   0  0  0  0  0  0  0  0  0  0  0  0
    8.2644   -7.6930    0.0000 O   0  0  0  0  0  0  0  0  0  0  0  0
    7.1084   -5.3662    0.0000 C   0  0  0  0  0  0  0  0  0  0  0  0
    8.4518   -4.6989    0.0000 O   0  0  0  0  0  0  0  0  0  0  0  0
    4.7966   -0.7127    0.0000 C   0  0  0  0  0  0  0  0  0  0  0  0
    6.1400   -0.0453    0.0000 O   0  0  0  0  0  0  0  0  0  0  0  0
    6.2337    1.4517    0.0000 C   0  0  0  0  0  0  0  0  0  0  0  0
    4.9841    2.2814    0.0000 O   0  0  0  0  0  0  0  0  0  0  0  0
    5.0778    3.7785    0.0000 C   0  0  0  0  0  0  0  0  0  0  0  0
    3.8282    4.6082    0.0000 C   0  0  0  0  0  0  0  0  0  0  0  0
    3.9219    6.1053    0.0000 O   0  0  0  0  0  0  0  0  0  0  0  0
    6.4212    4.4459    0.0000 C   0  0  0  0  0  0  0  0  0  0  0  0
    6.5149    5.9429    0.0000 O   0  0  0  0  0  0  0  0  0  0  0  0
    7.6708    3.6162    0.0000 C   0  0  0  0  0  0  0  0  0  0  0  0
    9.0142    4.2835    0.0000 O   0  0  0  0  0  0  0  0  0  0  0  0
    7.5771    2.1191    0.0000 C   0  0  0  0  0  0  0  0  0  0  0  0
    8.8267    1.2894    0.0000 O   0  0  0  0  0  0  0  0  0  0  0  0
   10.1701    1.9568    0.0000 C   0  0  0  0  0  0  0  0  0  0  0  0
   10.2638    3.4538    0.0000 O   0  0  0  0  0  0  0  0  0  0  0  0
   11.6072    4.1212    0.0000 C   0  0  0  0  0  0  0  0  0  0  0  0
   11.7009    5.6183    0.0000 C   0  0  0  0  0  0  0  0  0  0  0  0
   12.8568    3.2915    0.0000 C   0  0  0  0  0  0  0  0  0  0  0  0
   14.2002    3.9589    0.0000 O   0  0  0  0  0  0  0  0  0  0  0  0
   12.7631    1.7944    0.0000 C   0  0  0  0  0  0  0  0  0  0  0  0
   14.0127    0.9647    0.0000 O   0  0  0  0  0  0  0  0  0  0  0  0
   11.4197    1.1271    0.0000 C   0  0  0  0  0  0  0  0  0  0  0  0
   11.3260   -0.3700    0.0000 O   0  0  0  0  0  0  0  0  0  0  0  0
    3.5470    0.1170    0.0000 C   0  0  0  0  0  0  0  0  0  0  0  0
    3.6407    1.6141    0.0000 O   0  0  0  0  0  0  0  0  0  0  0  0
  1  2  1  0
  2  3  1  0
  3  4  1  0
  4  5  1  0
  5  6  1  0
  6  7  1  0
  7  8  1  0
  8  9  1  0
  9 10  1  0
 10 11  1  0
 11 12  1  0
 12 13  1  0
 13 14  1  0
 14 15  1  0
 15 16  1  0
 16 17  2  0
 16 18  1  0
 18 19  1  0
  6 20  1  0
 21 20  1  6
 21 22  1  0
 22 23  1  0
 23 24  1  6
 23 25  1  0
 25 26  1  1
 25 27  1  0
 27 28  1  6
 27 29  1  0
 29 30  1  1
 31 30  1  1
 31 32  1  0
 32 33  1  0
 33 34  1  1
 34 35  1  0
 33 36  1  0
 36 37  1  6
 36 38  1  0
 38 39  1  1
 38 40  1  0
 40 41  1  6
 42 41  1  1
 42 43  1  0
 43 44  1  0
 44 45  1  6
 44 46  1  0
 46 47  1  1
 48 47  1  1
 48 49  1  0
 49 50  1  0
 50 51  1  1
 50 52  1  0
 52 53  1  1
 52 54  1  0
 54 55  1  1
 54 56  1  0
 56 57  1  6
 46 58  1  0
 58 59  1  6
 60 59  1  6
 60 61  1  0
 61 62  1  0
 62 63  1  6
 63 64  1  0
 62 65  1  0
 65 66  1  1
 65 67  1  0
 67 68  1  6
 67 69  1  0
 69 70  1  1
 71 70  1  6
 71 72  1  0
 72 73  1  0
 73 74  1  6
 73 75  1  0
 75 76  1  1
 75 77  1  0
 77 78  1  6
 77 79  1  0
 79 80  1  1
 58 81  1  0
 81 82  1  6
 29 21  1  0
 40 31  1  0
 81 42  1  0
 56 48  1  0
 69 60  1  0
 79 71  1  0
M  END
>  <identifier>  (222) 
CNP0436839.1

>  <canonical_smiles>  (222) 
CCCCCC(CCCCCCCCCC(=O)OC)O[C@@H]1O[C@H](C)[C@@H](O)[C@H](O)[C@H]1O[C@@H]1O[C@H](CO)[C@@H](O)[C@H](O)[C@H]1O[C@@H]1O[C@@H](C)[C@H](O[C@@H]2O[C@H](C)[C@H](O)[C@H](O)[C@H]2O)[C@@H](O[C@@H]2O[C@H](CO)[C@@H](O)[C@H](O)[C@H]2O[C@@H]2O[C@H](C)[C@@H](O)[C@H](O)[C@H]2O)[C@H]1O

>  <standard_inchi>  (222) 
InChI=1S/C53H94O29/c1-7-8-14-17-26(18-15-12-10-9-11-13-16-19-29(56)70-6)75-51-45(37(64)32(59)24(4)73-51)82-53-47(39(66)34(61)28(21-55)77-53)81-50-42(69)44(43(25(5)74-50)78-48-40(67)35(62)30(57)22(2)71-48)79-52-46(38(65)33(60)27(20-54)76-52)80-49-41(68)36(63)31(58)23(3)72-49/h22-28,30-55,57-69H,7-21H2,1-6H3/t22-,23-,24-,25+,26?,27-,28-,30+,31-,32-,33-,34-,35+,36+,37+,38+,39+,40-,41-,42-,43+,44+,45-,46-,47-,48+,49+,50+,51+,52+,53+/m1/s1

>  <standard_inchi_key>  (222) 
OHRRDQUIPKLBHO-KJRZFQFTSA-N

>  <name>  (222) 
nan

>  <iupac_name>  (222) 
methyl 11-[(2~{R},3~{R},4~{S},5~{S},6~{R})-3-[(2~{S},3~{R},4~{S},5~{S},6~{R})-3-[(2~{S},3~{R},4~{S},5~{S},6~{S})-4-[(2~{S},3~{R},4~{S},5~{S},6~{R})-4,5-dihydroxy-6-(hydroxymethyl)-3-[(2~{S},3~{R},4~{S},5~{S},6~{R})-3,4,5-trihydroxy-6-methyl-tetrahydropyran-2-yl]oxy-tetrahydropyran-2-yl]oxy-3-hydroxy-6-methyl-5-[(2~{S},3~{R},4~{S},5~{R},6~{R})-3,4,5-trihydroxy-6-methyl-tetrahydropyran-2-yl]oxy-tetrahydropyran-2-yl]oxy-4,5-dihydroxy-6-(hydroxymethyl)tetrahydropyran-2-yl]oxy-4,5-dihydroxy-6-methyl-tetrahydropyran-2-yl]oxyhexadecanoate

>  <annotation_level>  (222) 
5

>  <total_atom_count>  (222) 
176

>  <heavy_atom_count>  (222) 
82

>  <molecular_weight>  (222) 
1195.31

>  <exact_molecular_weight>  (222) 
1194.58808

>  <molecular_formula>  (222) 
C53H94O29

>  <alogp>  (222) 
-4.33

>  <topological_polar_surface_area>  (222) 
440.51

>  <rotatable_bond_count>  (222) 
28

>  <hydrogen_bond_acceptors>  (222) 
29

>  <hydrogen_bond_donors>  (222) 
15

>  <hydrogen_bond_acceptors_lipinski>  (222) 
29

>  <hydrogen_bond_donors_lipinski>  (222) 
15

>  <lipinski_rule_of_five_violations>  (222) 
3

>  <aromatic_rings_count>  (222) 
0

>  <qed_drug_likeliness>  (222) 
0.03

>  <formal_charge>  (222) 
0

>  <fractioncsp3>  (222) 
0.98

>  <number_of_minimal_rings>  (222) 
6

>  <van_der_walls_volume>  (222) 
1067.12

>  <contains_sugar>  (222) 
True

>  <contains_ring_sugars>  (222) 
True

>  <contains_linear_sugars>  (222) 
False

>  <murcko_framework>  (222) 
O1CCCC(OC2OCCCC2OC3OCC(OC4OCCCC4)C(OC5OCCCC5OC6OCCCC6)C3)C1

>  <np_likeness>  (222) 
0.90

>  <chemical_class>  (222) 
Fatty Acyls

>  <chemical_sub_class>  (222) 
Fatty acyl glycosides

>  <chemical_super_class>  (222) 
Lipids and lipid-like molecules

>  <direct_parent_classification>  (222) 
Fatty acyl glycosides of mono- and disaccharides

>  <np_classifier_pathway>  (222) 
Fatty acids

>  <np_classifier_superclass>  (222) 
Fatty acyls

>  <np_classifier_class>  (222) 
Resin glycosides

>  <np_classifier_is_glycoside>  (222) 
True

>  <organisms>  (222) 
Ipomoea purga

>  <collections>  (222) 
BIOFACQUIM|Latin America dataset

>  <dois>  (222) 
10.1021/np060295f

>  <synonyms>  (222) 
Purgic acid B methyl ester

>  <cas>  (222) 
nan

$$$$

     RDKit          2D

 13 14  0  0  0  0  0  0  0  0999 V2000
    4.2729   -0.3203    0.0000 O   0  0  0  0  0  0  0  0  0  0  0  0
    2.7853   -0.1278    0.0000 C   0  0  0  0  0  0  0  0  0  0  0  0
    2.3134    1.2960    0.0000 C   0  0  0  0  0  0  0  0  0  0  0  0
    0.9059    1.8147    0.0000 C   0  0  0  0  0  0  0  0  0  0  0  0
   -0.3772    1.0378    0.0000 C   0  0  0  0  0  0  0  0  0  0  0  0
   -1.5692    1.9483    0.0000 C   0  0  0  0  0  0  0  0  0  0  0  0
   -2.9538    1.3712    0.0000 C   0  0  0  0  0  0  0  0  0  0  0  0
   -3.1463   -0.1164    0.0000 C   0  0  0  0  0  0  0  0  0  0  0  0
   -1.9543   -1.0269    0.0000 C   0  0  0  0  0  0  0  0  0  0  0  0
   -2.1468   -2.5145    0.0000 O   0  0  0  0  0  0  0  0  0  0  0  0
   -0.5697   -0.4498    0.0000 C   0  0  0  0  0  0  0  0  0  0  0  0
    0.4733   -1.5279    0.0000 C   0  0  0  0  0  0  0  0  0  0  0  0
    1.9664   -1.3845    0.0000 O   0  0  0  0  0  0  0  0  0  0  0  0
  1  2  2  0
  2  3  1  0
  3  4  2  0
  4  5  1  0
  5  6  2  0
  6  7  1  0
  7  8  2  0
  8  9  1  0
  9 10  1  0
  9 11  2  0
 11 12  1  0
 12 13  1  0
 13  2  1  0
 11  5  1  0
M  END
>  <identifier>  (223) 
CNP0282456.0

>  <canonical_smiles>  (223) 
O=C1C=CC2=CC=CC(O)=C2CO1

>  <standard_inchi>  (223) 
InChI=1S/C10H8O3/c11-9-3-1-2-7-4-5-10(12)13-6-8(7)9/h1-5,11H,6H2

>  <standard_inchi_key>  (223) 
OMBMYWYFYLOVPT-UHFFFAOYSA-N

>  <name>  (223) 
Xylarinol A

>  <iupac_name>  (223) 
9-hydroxy-1~{H}-2-benzoxepin-3-one

>  <annotation_level>  (223) 
5

>  <total_atom_count>  (223) 
21

>  <heavy_atom_count>  (223) 
13

>  <molecular_weight>  (223) 
176.17

>  <exact_molecular_weight>  (223) 
176.04734

>  <molecular_formula>  (223) 
C10H8O3

>  <alogp>  (223) 
1.46

>  <topological_polar_surface_area>  (223) 
46.53

>  <rotatable_bond_count>  (223) 
0

>  <hydrogen_bond_acceptors>  (223) 
3

>  <hydrogen_bond_donors>  (223) 
1

>  <hydrogen_bond_acceptors_lipinski>  (223) 
3

>  <hydrogen_bond_donors_lipinski>  (223) 
1

>  <lipinski_rule_of_five_violations>  (223) 
0

>  <aromatic_rings_count>  (223) 
1

>  <qed_drug_likeliness>  (223) 
0.61

>  <formal_charge>  (223) 
0

>  <fractioncsp3>  (223) 
0.10

>  <number_of_minimal_rings>  (223) 
2

>  <van_der_walls_volume>  (223) 
152.81

>  <contains_sugar>  (223) 
False

>  <contains_ring_sugars>  (223) 
False

>  <contains_linear_sugars>  (223) 
False

>  <murcko_framework>  (223) 
O1CC=Cc2ccccc2C1

>  <np_likeness>  (223) 
1.77

>  <chemical_class>  (223) 
Benzoxepines

>  <chemical_sub_class>  (223) 
Benzoxepines

>  <chemical_super_class>  (223) 
Organoheterocyclic compounds

>  <direct_parent_classification>  (223) 
Benzoxepines

>  <np_classifier_pathway>  (223) 
Polyketides

>  <np_classifier_superclass>  (223) 
Cyclic polyketides

>  <np_classifier_class>  (223) 
Phthalide derivatives

>  <np_classifier_is_glycoside>  (223) 
False

>  <organisms>  (223) 
Malbranchea flavorosea|Pestalotiopsis virgatula|Phomopsis sp.|Xylaria polymorpha

>  <collections>  (223) 
BIOFACQUIM|ChEBI NPs|Latin America dataset|NPASS|NPAtlas|UNPD (Universal Natural Products Database)

>  <dois>  (223) 
10.1021/acs.jnatprod.6b00977|10.1021/np2005665|10.1038/ja.2008.20

>  <synonyms>  (223) 
Compound NP-008802|CHEMBL4099119|CHEBI:69692|AKOS040739287|(Z)-9-hydroxybenzocoxepin-3(1H)-one|Q27138034|Xylarinol A

>  <cas>  (223) 
nan

$$$$

     RDKit          2D

 22 24  0  0  0  0  0  0  0  0999 V2000
   -6.2625   -1.2092    0.0000 C   0  0  0  0  0  0  0  0  0  0  0  0
   -4.9657   -1.9629    0.0000 O   0  0  0  0  0  0  0  0  0  0  0  0
   -3.6645   -1.2167    0.0000 C   0  0  0  0  0  0  0  0  0  0  0  0
   -3.6601    0.2833    0.0000 C   0  0  0  0  0  0  0  0  0  0  0  0
   -2.3589    1.0296    0.0000 C   0  0  0  0  0  0  0  0  0  0  0  0
   -2.3546    2.5295    0.0000 O   0  0  0  0  0  0  0  0  0  0  0  0
   -3.6514    3.2833    0.0000 C   0  0  0  0  0  0  0  0  0  0  0  0
   -1.0621    0.2758    0.0000 C   0  0  0  0  0  0  0  0  0  0  0  0
    0.2391    1.0220    0.0000 C   0  0  0  0  0  0  0  0  0  0  0  0
    0.2435    2.5220    0.0000 O   0  0  0  0  0  0  0  0  0  0  0  0
    1.5360    0.2683    0.0000 C   0  0  0  0  0  0  0  0  0  0  0  0
    2.8372    1.0145    0.0000 C   0  0  0  0  0  0  0  0  0  0  0  0
    2.8415    2.5145    0.0000 O   0  0  0  0  0  0  0  0  0  0  0  0
    4.1341    0.2608    0.0000 C   0  0  0  0  0  0  0  0  0  0  0  0
    5.4353    1.0070    0.0000 C   0  0  0  0  0  0  0  0  0  0  0  0
    4.1297   -1.2392    0.0000 C   0  0  0  0  0  0  0  0  0  0  0  0
    5.4266   -1.9930    0.0000 C   0  0  0  0  0  0  0  0  0  0  0  0
    2.8285   -1.9855    0.0000 O   0  0  0  0  0  0  0  0  0  0  0  0
    1.5317   -1.2317    0.0000 C   0  0  0  0  0  0  0  0  0  0  0  0
    0.2305   -1.9779    0.0000 C   0  0  0  0  0  0  0  0  0  0  0  0
   -1.0664   -1.2242    0.0000 C   0  0  0  0  0  0  0  0  0  0  0  0
   -2.3676   -1.9704    0.0000 C   0  0  0  0  0  0  0  0  0  0  0  0
  1  2  1  0
  2  3  1  0
  3  4  2  0
  4  5  1  0
  5  6  1  0
  6  7  1  0
  5  8  2  0
  8  9  1  0
  9 10  1  0
  9 11  2  0
 11 12  1  0
 12 13  2  0
 12 14  1  0
 14 15  1  0
 14 16  2  0
 16 17  1  0
 16 18  1  0
 18 19  1  0
 19 20  2  0
 20 21  1  0
 21 22  2  0
 22  3  1  0
 21  8  1  0
 19 11  1  0
M  END
>  <identifier>  (224) 
CNP0313237.0

>  <canonical_smiles>  (224) 
COC1=CC(OC)=C2C(O)=C3C(=O)C(C)=C(C)OC3=CC2=C1

>  <standard_inchi>  (224) 
InChI=1S/C17H16O5/c1-8-9(2)22-13-6-10-5-11(20-3)7-12(21-4)14(10)17(19)15(13)16(8)18/h5-7,19H,1-4H3

>  <standard_inchi_key>  (224) 
FZYRENRMDAPHEM-UHFFFAOYSA-N

>  <name>  (224) 
5-hydroxy-6,8-dimethoxy-2,3-dimethyl-4H-naphtho[2,3-b]pyran-4-one

>  <iupac_name>  (224) 
5-hydroxy-6,8-dimethoxy-2,3-dimethyl-benzo[g]chromen-4-one

>  <annotation_level>  (224) 
5

>  <total_atom_count>  (224) 
38

>  <heavy_atom_count>  (224) 
22

>  <molecular_weight>  (224) 
300.31

>  <exact_molecular_weight>  (224) 
300.09977

>  <molecular_formula>  (224) 
C17H16O5

>  <alogp>  (224) 
3.29

>  <topological_polar_surface_area>  (224) 
68.90

>  <rotatable_bond_count>  (224) 
2

>  <hydrogen_bond_acceptors>  (224) 
5

>  <hydrogen_bond_donors>  (224) 
1

>  <hydrogen_bond_acceptors_lipinski>  (224) 
5

>  <hydrogen_bond_donors_lipinski>  (224) 
1

>  <lipinski_rule_of_five_violations>  (224) 
0

>  <aromatic_rings_count>  (224) 
3

>  <qed_drug_likeliness>  (224) 
0.74

>  <formal_charge>  (224) 
0

>  <fractioncsp3>  (224) 
0.24

>  <number_of_minimal_rings>  (224) 
3

>  <van_der_walls_volume>  (224) 
260.78

>  <contains_sugar>  (224) 
False

>  <contains_ring_sugars>  (224) 
False

>  <contains_linear_sugars>  (224) 
False

>  <murcko_framework>  (224) 
O1C=CCc2cc3ccccc3cc12

>  <np_likeness>  (224) 
1.22

>  <chemical_class>  (224) 
Naphthopyrans

>  <chemical_sub_class>  (224) 
Naphthopyranones

>  <chemical_super_class>  (224) 
Organoheterocyclic compounds

>  <direct_parent_classification>  (224) 
Naphthopyranones

>  <np_classifier_pathway>  (224) 
Polyketides

>  <np_classifier_superclass>  (224) 
Chromanes

>  <np_classifier_class>  (224) 
Chromones

>  <np_classifier_is_glycoside>  (224) 
False

>  <organisms>  (224) 
Guanomyces polythrix

>  <collections>  (224) 
BIOFACQUIM|Latin America dataset|NPASS|NPAtlas|UNPD (Universal Natural Products Database)

>  <dois>  (224) 
10.1021/np990534h

>  <synonyms>  (224) 
CHEMBL504766|CHEBI:203686|5-hydroxy-6|8-dimethoxy-2|3-dimethylbenzogchromen-4-one|5-hydroxy-6 8-dimethoxy-2 3-dimethyl-4H-naphtho2 3-b-pyran-4-one

>  <cas>  (224) 
nan

$$$$

     RDKit          2D

 21 23  0  0  0  0  0  0  0  0999 V2000
   -5.9564   -1.3836    0.0000 C   0  0  0  0  0  0  0  0  0  0  0  0
   -4.6324   -2.0886    0.0000 O   0  0  0  0  0  0  0  0  0  0  0  0
   -3.3598   -1.2945    0.0000 C   0  0  0  0  0  0  0  0  0  0  0  0
   -3.4113    0.2046    0.0000 C   0  0  0  0  0  0  0  0  0  0  0  0
   -2.1387    0.9987    0.0000 C   0  0  0  0  0  0  0  0  0  0  0  0
   -2.1901    2.4978    0.0000 O   0  0  0  0  0  0  0  0  0  0  0  0
   -3.5141    3.2028    0.0000 C   0  0  0  0  0  0  0  0  0  0  0  0
   -0.8147    0.2937    0.0000 C   0  0  0  0  0  0  0  0  0  0  0  0
    0.4578    1.0878    0.0000 C   0  0  0  0  0  0  0  0  0  0  0  0
    0.4064    2.5869    0.0000 O   0  0  0  0  0  0  0  0  0  0  0  0
    1.7818    0.3828    0.0000 C   0  0  0  0  0  0  0  0  0  0  0  0
    3.0544    1.1769    0.0000 C   0  0  0  0  0  0  0  0  0  0  0  0
    3.0030    2.6760    0.0000 O   0  0  0  0  0  0  0  0  0  0  0  0
    4.3784    0.4718    0.0000 C   0  0  0  0  0  0  0  0  0  0  0  0
    4.4298   -1.0273    0.0000 C   0  0  0  0  0  0  0  0  0  0  0  0
    5.7538   -1.7323    0.0000 C   0  0  0  0  0  0  0  0  0  0  0  0
    3.1573   -1.8214    0.0000 O   0  0  0  0  0  0  0  0  0  0  0  0
    1.8333   -1.1164    0.0000 C   0  0  0  0  0  0  0  0  0  0  0  0
    0.5607   -1.9105    0.0000 C   0  0  0  0  0  0  0  0  0  0  0  0
   -0.7633   -1.2055    0.0000 C   0  0  0  0  0  0  0  0  0  0  0  0
   -2.0358   -1.9996    0.0000 C   0  0  0  0  0  0  0  0  0  0  0  0
  1  2  1  0
  2  3  1  0
  3  4  2  0
  4  5  1  0
  5  6  1  0
  6  7  1  0
  5  8  2  0
  8  9  1  0
  9 10  1  0
  9 11  2  0
 11 12  1  0
 12 13  2  0
 12 14  1  0
 14 15  2  0
 15 16  1  0
 15 17  1  0
 17 18  1  0
 18 19  2  0
 19 20  1  0
 20 21  2  0
 21  3  1  0
 20  8  1  0
 18 11  1  0
M  END
>  <identifier>  (225) 
CNP0239283.0

>  <canonical_smiles>  (225) 
COC1=CC(OC)=C2C(O)=C3C(=O)C=C(C)OC3=CC2=C1

>  <standard_inchi>  (225) 
InChI=1S/C16H14O5/c1-8-4-11(17)15-13(21-8)6-9-5-10(19-2)7-12(20-3)14(9)16(15)18/h4-7,18H,1-3H3

>  <standard_inchi_key>  (225) 
HFPQKJMLIONCGP-UHFFFAOYSA-N

>  <name>  (225) 
Heminigerone

>  <iupac_name>  (225) 
5-hydroxy-6,8-dimethoxy-2-methyl-benzo[g]chromen-4-one

>  <annotation_level>  (225) 
5

>  <total_atom_count>  (225) 
35

>  <heavy_atom_count>  (225) 
21

>  <molecular_weight>  (225) 
286.28

>  <exact_molecular_weight>  (225) 
286.08412

>  <molecular_formula>  (225) 
C16H14O5

>  <alogp>  (225) 
2.98

>  <topological_polar_surface_area>  (225) 
68.90

>  <rotatable_bond_count>  (225) 
2

>  <hydrogen_bond_acceptors>  (225) 
5

>  <hydrogen_bond_donors>  (225) 
1

>  <hydrogen_bond_acceptors_lipinski>  (225) 
5

>  <hydrogen_bond_donors_lipinski>  (225) 
1

>  <lipinski_rule_of_five_violations>  (225) 
0

>  <aromatic_rings_count>  (225) 
3

>  <qed_drug_likeliness>  (225) 
0.73

>  <formal_charge>  (225) 
0

>  <fractioncsp3>  (225) 
0.19

>  <number_of_minimal_rings>  (225) 
3

>  <van_der_walls_volume>  (225) 
244.45

>  <contains_sugar>  (225) 
False

>  <contains_ring_sugars>  (225) 
False

>  <contains_linear_sugars>  (225) 
False

>  <murcko_framework>  (225) 
O1C=CCc2cc3ccccc3cc12

>  <np_likeness>  (225) 
1.44

>  <chemical_class>  (225) 
Naphthopyrans

>  <chemical_sub_class>  (225) 
Naphthopyranones

>  <chemical_super_class>  (225) 
Organoheterocyclic compounds

>  <direct_parent_classification>  (225) 
Naphthopyranones

>  <np_classifier_pathway>  (225) 
Polyketides

>  <np_classifier_superclass>  (225) 
Naphthalenes

>  <np_classifier_class>  (225) 
Naphthalenes and derivatives

>  <np_classifier_is_glycoside>  (225) 
False

>  <organisms>  (225) 
Alternaria alternata|Aspergillus fonsecaeus|Aspergillus niger|Aspergillus tubingensis|Cladosporium herbarum|Cladosporium herbarum IFB-E002|Guanomyces polythrix|Pseudococcus cryptus|Scabrethia scabra

>  <collections>  (225) 
ANPDB|BIOFACQUIM|ChEBI NPs|EMNPD|KNApSaCK|Latin America dataset|NANPDB (Natural Products from Northern African Sources)|NPASS|NPEdia|Super Natural II|UNPD (Universal Natural Products Database)

>  <dois>  (225) 
10.1021/np990534h

>  <synonyms>  (225) 
Rubrofusarin B|17276-15-2|TMD 256a2|TMD-256a2|5-hydroxy-6|8-dimethoxy-2-methylbenzogchromen-4-one|CHEMBL469613|TLJ90R747F|4H-Naphtho(2|3-b)pyran-4-one| 5-hydroxy-6|8-dimethoxy-2-methyl-|UNII-TLJ90R747F|rubrofusarin monomethyl ether|SCHEMBL16227248|DTXSID50169393|CHEBI:133805|BDBM50241852|Q27290019|5-HYDROXY-6|8-DIMETHOXY-2-METHYL-4H-BENZOGCHROMEN-4-ONE|5-hydroxy-6|8-dimethoxy-2-methyl-4H-naphtho(2|3-b)pyran-4-one

>  <cas>  (225) 
17276-15-2

$$$$

     RDKit          2D

 20 22  0  0  0  0  0  0  0  0999 V2000
   -5.1962   -1.6500    0.0000 C   0  0  0  0  0  0  0  0  0  0  0  0
   -3.8971   -0.9000    0.0000 C   0  0  0  0  0  0  0  0  0  0  0  0
   -3.8971    0.6000    0.0000 C   0  0  0  0  0  0  0  0  0  0  0  0
   -2.5981    1.3500    0.0000 C   0  0  0  0  0  0  0  0  0  0  0  0
   -2.5981    2.8500    0.0000 O   0  0  0  0  0  0  0  0  0  0  0  0
   -1.2990    0.6000    0.0000 C   0  0  0  0  0  0  0  0  0  0  0  0
    0.0000    1.3500    0.0000 C   0  0  0  0  0  0  0  0  0  0  0  0
    0.0000    2.8500    0.0000 O   0  0  0  0  0  0  0  0  0  0  0  0
    1.2990    0.6000    0.0000 C   0  0  0  0  0  0  0  0  0  0  0  0
    2.5981    1.3500    0.0000 C   0  0  0  0  0  0  0  0  0  0  0  0
    2.5981    2.8500    0.0000 O   0  0  0  0  0  0  0  0  0  0  0  0
    3.8971    0.6000    0.0000 C   0  0  0  0  0  0  0  0  0  0  0  0
    3.8971   -0.9000    0.0000 C   0  0  0  0  0  0  0  0  0  0  0  0
    5.1962   -1.6500    0.0000 O   0  0  0  0  0  0  0  0  0  0  0  0
    2.5981   -1.6500    0.0000 C   0  0  0  0  0  0  0  0  0  0  0  0
    1.2990   -0.9000    0.0000 C   0  0  0  0  0  0  0  0  0  0  0  0
   -0.0000   -1.6500    0.0000 C   0  0  0  0  0  0  0  0  0  0  0  0
   -0.0000   -3.1500    0.0000 O   0  0  0  0  0  0  0  0  0  0  0  0
   -1.2990   -0.9000    0.0000 C   0  0  0  0  0  0  0  0  0  0  0  0
   -2.5981   -1.6500    0.0000 C   0  0  0  0  0  0  0  0  0  0  0  0
  1  2  1  0
  2  3  2  0
  3  4  1  0
  4  5  1  0
  4  6  2  0
  6  7  1  0
  7  8  2  0
  7  9  1  0
  9 10  2  0
 10 11  1  0
 10 12  1  0
 12 13  2  0
 13 14  1  0
 13 15  1  0
 15 16  2  0
 16 17  1  0
 17 18  2  0
 17 19  1  0
 19 20  2  0
 20  2  1  0
 19  6  1  0
 16  9  1  0
M  END
>  <identifier>  (226) 
CNP0191322.0

>  <canonical_smiles>  (226) 
CC1=CC(O)=C2C(=O)C3=C(O)C=C(O)C=C3C(=O)C2=C1

>  <standard_inchi>  (226) 
InChI=1S/C15H10O5/c1-6-2-8-12(10(17)3-6)15(20)13-9(14(8)19)4-7(16)5-11(13)18/h2-5,16-18H,1H3

>  <standard_inchi_key>  (226) 
RHMXXJGYXNZAPX-UHFFFAOYSA-N

>  <name>  (226) 
emodin

>  <iupac_name>  (226) 
1,3,8-trihydroxy-6-methyl-anthracene-9,10-dione

>  <annotation_level>  (226) 
5

>  <total_atom_count>  (226) 
30

>  <heavy_atom_count>  (226) 
20

>  <molecular_weight>  (226) 
270.24

>  <exact_molecular_weight>  (226) 
270.05282

>  <molecular_formula>  (226) 
C15H10O5

>  <alogp>  (226) 
1.89

>  <topological_polar_surface_area>  (226) 
94.83

>  <rotatable_bond_count>  (226) 
0

>  <hydrogen_bond_acceptors>  (226) 
5

>  <hydrogen_bond_donors>  (226) 
3

>  <hydrogen_bond_acceptors_lipinski>  (226) 
5

>  <hydrogen_bond_donors_lipinski>  (226) 
3

>  <lipinski_rule_of_five_violations>  (226) 
0

>  <aromatic_rings_count>  (226) 
2

>  <qed_drug_likeliness>  (226) 
0.58

>  <formal_charge>  (226) 
0

>  <fractioncsp3>  (226) 
0.07

>  <number_of_minimal_rings>  (226) 
3

>  <van_der_walls_volume>  (226) 
222.46

>  <contains_sugar>  (226) 
False

>  <contains_ring_sugars>  (226) 
False

>  <contains_linear_sugars>  (226) 
False

>  <murcko_framework>  (226) 
c1ccc2c(c1)Cc3ccccc3C2

>  <np_likeness>  (226) 
1.19

>  <chemical_class>  (226) 
Anthracenes

>  <chemical_sub_class>  (226) 
Anthraquinones

>  <chemical_super_class>  (226) 
Benzenoids

>  <direct_parent_classification>  (226) 
Hydroxyanthraquinones

>  <np_classifier_pathway>  (226) 
Polyketides

>  <np_classifier_superclass>  (226) 
Polycyclic aromatic polyketides

>  <np_classifier_class>  (226) 
Anthraquinones and anthrones

>  <np_classifier_is_glycoside>  (226) 
False

>  <organisms>  (226) 
A new engineered strain of Saccharomyces cerevisiae INVSc1 [bAS CPR CYP72A63 CYP93E2 or CYP716A12]|Abrus pulchellus|Abrus pulchellus subsp. cantoniensis|Achromobacter denitrificans|Aconitum seravschanicum|Aconitum tasiromontanum|Acorus gramineus|Acorus tatarinowii|Adalia bipunctata|Adansonia grandidieri|Aframomum giganteum|Aizopsis selskiana|Albizia myriophylla|Amanita phalloides|Amphorogyne spicata|Anaphalis lactea|Anchusa azurea|Andrographis laxiflora|Andrographis neesiana|Anemarrhena asphodeloides|Aphyllocladus denticulatus|Aralia decaisneana|Artemisia parviflora|Artemisia scoparia|Aspergillus alliaceus|Aspergillus flavipes HN4-13|Aspergillus silvaticus|Aspergillus terreus IMI16043|Aspergillus wentii|Aspidosperma discolor|Aster sedifolius|Aster tataricus|Athelia rolfsii|Baccharis potosina|Balanophora laxiflora|Bassia muricata|Benincasa hispida|Bipolaris heveae|Boehmeria nivea|Boehmeria platanifolia|Bolbostemma paniculatum|Bridelia stipularis|Canarium bengalense|Carapichea ipecacuanha|Carduus tenuiflorus|Cascara sagrada|Cassia|Cassia alata|Cassia alata L.|Cassia angolensis|Cassia artemisioides|Cassia fastuosa|Cassia javanica|Cassia obtusifolia|Cassia occidentalis|Cassia speciosa|Cassia tora|Cassia tora L.|Cassia torosa L.|Caulerpa peltata|Caulis polygoni multiflori|Caulis sargentodoxae|Caulocystis cephalornithos|Cephaelis ipecacuanha|Cephalotaxus griffithii|Chaetomium carinthiacum|Chaiturus marrubiastrum|Chamaecrista mimosoides|Chamaecrista nomame|Chamaecrista pumila|Cheilanthes argentea|Cirsium oligophyllum|Clibadium sprucei|Cochliobolus lunatus SCSIO41401|Codonopsis pilosula|Coreopsis tinctoria|Cranfillia fluviatilis|Cremastra appendiculata|Cynanchum viminale|Cytophaga hutchinsoni|Dalbergia hupeana|Dalbergia lanceolaria subsp. paniculata|Danaus gilippus|Degenia velebitica|Delia arenicola|Delphinium nuttallianum|Delphinium virgatum|Dendriopoterium menendezii|Derris oblonga|Dictyopteris australis|Dillenia indica|Dioscorea collettii var. hypoglauca|Dipsacus azureus|Dodonaea viscosa|Dolomiaea souliei|Dysoxylum cumingianum|Dysoxylum muelleri|Enceliopsis argophylla|Endoconidiophora coerulescens|Endothia longirostris|Epichloe festucae var. lolii|Epimedium koreanum|Eria mollis|Eriocaulon buergerianum|Eriocaulon sieboldianum|Eriocheir sinensis|Erythrina lysistemon|Erythrophleum ivorense|Euodia bodinieri|Euodia officinalis|Euodia ruticarpa|Evodia rutaecarpa|Fagopyrum esculentum|Fagopyrum tataricum|Fallopia multiflora|Flacourtia jangomas|Flemingia grahamiana|Frangula alnus|Frangula alnus Mill.|Frangula purshiana|Fridericia triplinervia|Gadus morhua callarias|Garcinia polyantha|Gleichenia quadripartita|Glycyrrhiza uralensis|Grangea maderaspatana|Guanomyces polythrix|Halorhodospira halochloris|Hedera helix|Helichrysum chionosphaerum|Helichrysum plicatum|Herba acalyphae|Hymenoxys lemmonii|Hypericum coris L.|Hypericum hirsutum L.|Hypericum humifusum L.|Hypericum maculatum Crantz s.l. (H. maculatum Crantz s.str. and H. maculatum subsp. obtusiusculum (Tourlet) Hayek)|Hypericum montanum L.|Hypericum perforatum|Hypericum perforatum L. s.str.|Hypericum prolificum|Hypericum pulchrum L.|Hypericum sampsonii|Hypericum tetrapterum Fr.|Isaria fumosorosea|Jacquemontia paniculata|Justicia secunda|Kniphofia species|Koelreuteria henryi|Lactuca plumieri|Lanaria lanata|Lavandula vera|Lentinus tigrinus|Leptocereus quadricostatus|Lespedeza tomentosa|Lilium brownii|Lilium brownii f. e. brown var. colchesteri wils|Lilium brownii var. viridulum|Lilium brownii var.viridulum|Lobelia berlandieri|Loranthus pentandrus|Lupinus corymbosus|Maclura tinctoria|Magnolia figo|Magnolia ovata|Mandragora autumnalis|Melicope triphylla|Mentha arvensis|Mentha canadensis|Menyanthes trifoliata L.|Metrodorea nigra|Microdiplodia|Micromonospora megalomicea|Miliusa velutina|Mitracarpus scaber|Monodictys sp.|Muehlenbeckia tamnifolia|Muntingia calabura|Mycocepurus goeldii|Myrsine africana|Nekemias grossedentata|Neobalanocarpus heimii|Neobellieria bullata|Nepeta granatensis|Nepeta parnassica|Nuxia floribunda|Onobrychis arenaria|Oophaga granulifera|Oplopanax elatus|Oryctes monoceros|Parmelia alpicola|Passiflora sexflora|Penicillium bilaiae|Penicillium restrictum|Penicillium shearii|Persicaria perfoliata|Petunia integrifolia subsp. inflata|Phialophora asteris|Phlogacanthus curviflorus|Phoma foveata|Photinia serratifolia|Physalis alkekengi|Picramnia antidesma|Picramnia teapensis Tul.|Picrasma quassioides|Pinalia stricta|Pleione bulbocodioides|Pleione yunnanensis|Pluchea odora|Pneumatopteris pennigera|Polygonum cuspidatum|Polygonum hypoleucum|Polygonum multiflorum|Polygonum perfoliatum|Polygonum polystachyum Meisn.|Polyporus betulinus|Pseudococcus albizziae|Psorospermum glaberrimum|Psychotria stachyoides|Pyrenochaeta terrestris|Quercus rubra|Radix et rhizoma rhei|Radix et rhizoma rhei praeparata|Radix moghaniae philippinensis|Radix polygoni multiflori preparata|Rattus rattus|Ravenia spectabilis|Rhamnaceae|Rhamnus|Rhamnus alpina L.|Rhamnus cathartica L.|Rhamnus davurica|Rhamnus frangula|Rhamnus nepalensis|Rhamnus pumila Turra|Rhamnus saxarilis Jacq.|Rheum australe|Rheum coreanum|Rheum emodi|Rheum officinale|Rheum palmatum|Rheum rhabarbarum L.|Rheum spp.|Rheum tanguticum|Rheum undulatum|Rheum wittrocki|Rhizoma dioscoreae hypoglaucae|Rhodiola viridula|Rhododendron dahuricum|Rhynchophorus ferrugineus|Rivularia firma|Rosa pomifera|Rubus alceifolius|Rumex acetosa|Rumex acetose L.|Rumex acetosella L. s.l. (R. acetosella L. s.str. and R.acetosella subsp. Pyrenaicus (Lapeyr.) Akeroyd)|Rumex alpestris Jacq.|Rumex alpinus L.|Rumex aquaticus L.|Rumex chalepensis|Rumex conglomeratus Murray|Rumex crispus|Rumex crispus L.|Rumex dentatus|Rumex hydrolapathum Huds.|Rumex japonicus|Rumex longifolius DC.|Rumex nepalensis|Rumex nivalis Hegetschw.|Rumex obtusifolius L.|Rumex patientia|Rumex patientia L.|Rumex pulcher L.|Rumex sanguineus L.|Rumex scutatus L.|Rumex spp.|Rumex thyrsiflorus Fingerh.|Rumex vesicarius|Salvia aurea|Salvia greggii|Sargentodoxa cuneata|Schistostephium artemisiifolium|Scilla socialis|Selaginella labordei|Senecio behnii|Senecio bonariensis|Senecio praecox|Senecio scandens|Senecio subdentatus|Senna alata|Senna alexandrina|Senna angustisiliqua|Senna auriculata|Senna didymobotrya|Senna obtusifolia|Senna occidentalis|Senna podocarpa|Senna septemtrionalis|Senna sophera|Senna tora|Solanum cleistogamum|Sphaerella laricina|Sphaerella rosigena|Stephanitis takeyai|Stevia berlandieri|Stevia ovata|Stigma croci|Syzygium australe|Tagetes filifolia|Tanacetum coccineum|Tapinella panuoides|Taraxacum kok-saghyz|Taraxacum platycarpum subsp. hondoense|Teucrium yemense|Thielavia subthermophila|Thymelaea hirsuta|Trichilia connaroides|Tricholoma portentosum|Tricholomopsis rutilans|Trichoptilus wahlbergi|Turbo cornutus|Uvaria afzelii|Vatairea heteroptera|Ventilago calyculata|Ventilago leiocarpa|Verbascum thapsiforme|Vismia laurentii|Vismia orientalis|Wilbrandia ebracteata|Xalocoa ocellata|Xanthoceras sorbifolium|Xerochrysum viscosum|Xylaria longiana|endophytic aspergillus|rumex plants

>  <collections>  (226) 
ANPDB|AfroCancer|AfroDB|AnalytiCon Discovery NPs|Australian natural products|BIOFACQUIM|CMAUP (cCollective molecular activities of useful plants)|ChEBI NPs|ConMedNP|DrugBankNP|EMNPD|ETM (Ethiopian Traditional Medicine) DB|FooDB|GNPS (Global Natural Products Social Molecular Networking)|HIM (Herbal Ingredients in-vivo Metabolism database)|HIT (Herbal Ingredients Targets)|InflamNat|KNApSaCK|Latin America dataset|Marine Natural Products|Mitishamba database|NANPDB (Natural Products from Northern African Sources)|NPASS|NPAtlas|NPCARE|NPEdia|Phyto4Health|PubChem NPs|Super Natural II|TCMDB-Taiwan (Traditional Chinese Medicine database)|TCMID (Traditional Chinese Medicine Integrated Database)|TIPdb (database of Taiwan indigenous plants)|TPPT (Toxic Plants–PhytoToxins)|UNPD (Universal Natural Products Database)|VietHerb|p-ANAPL

>  <dois>  (226) 
10.1002/9780470744307.gat218|10.1002/biuz.19840140514|10.1002/food.19880321030|10.1016/0031-9422(73)80584-9|10.1016/0305-1978(88)90089-0|10.1016/j.bmcl.2013.04.059|10.1016/j.bmcl.2015.10.014|10.1016/j.intimp.2016.02.014|10.1016/s0960-894x(01)00318-3|10.1021/acs.jnatprod.6b00766|10.1021/acs.jnatprod.8b00015|10.1021/np000569d|10.1021/np0301442|10.1021/np070669k|10.1021/np100730b|10.1021/np5000704|10.1021/np500418n|10.1021/np50069a014|10.1021/np50083a026|10.1021/np50096a018|10.1021/np50096a027|10.1021/np50100a021|10.1021/np50114a010|10.1021/np990534h|10.1042/bj0980112|10.1046/j.1365-3156.1997.d01-242.x|10.1080/10286020.2010.534081|10.1093/pcp/pct015|10.2903/j.efsa.2012.2663|10.5281/zenodo.3541164

>  <synonyms>  (226) 
518-82-1|Emodol|Frangula emodin|Schuttgelb|1|3|8-trihydroxy-6-methylanthracene-9|10-dione|Rheum emodin|Archin|Frangulic acid|3-Methyl-1|6|8-trihydroxyanthraquinone|Persian Berry Lake|C.I. Natural Yellow 14|9|10-Anthracenedione| 1|3|8-trihydroxy-6-methyl-|1|3|8-Trihydroxy-6-methyl-9|10-anthraquinone|4|5|7-Trihydroxy-2-methylanthraquinone|C.I. 75440|Alatinone|CCRIS 3528|NSC 408120|NSC 622947|HSDB 7093|UNII-KA46RNI6HN|KA46RNI6HN|Anthraquinone| 1|3|8-trihydroxy-6-methyl-|EINECS 208-258-8|BRN 1888141|DTXSID5025231|CHEBI:42223|AI3-38286|Anthraquinone| 6-methyl-1|3|8-trihydroxy-|MFCD00001207|1|3|8-Trihydroxy-6-methylanthra-9|10-quinone|CHEMBL289277|DTXCID205231|1|3|8-trihydroxy-6-methyl-9|10-dihydroanthracene-9|10-dione|EMODIN (USP-RS)|EMODIN USP-RS|6-Methyl-1|3|8-trihydroxy-9|10-anthracenedione|EMO|rheum emodium|Emodin| Rheum|Emodin| Frangula|CAS-518-82-1|SMR000326798|SR-01000075615|Emdoin|3bqc|Emodin|(S)|Spectrum_001954|1f0q|3ed0|SpecPlus_000332|EMODIN HSDB|EMODIN INCI|1|3|8-tri-hydroxy-6-methyl-anthra-quinone|Spectrum2_000895|Spectrum3_000742|Spectrum4_001757|Spectrum5_000614|EMODIN MI|Lopac-E-7881|Emodin| analytical standard|NCIMech_000049|Lopac0_000552|BSPBio_002324|KBioGR_002234|KBioSS_002508|MLS000563068|MLS001066370|MLS004257392|MLS006011712|DivK1c_006428|SCHEMBL177689|SPBio_000710|MEGxp0_000460|ACon1_001939|BDBM11318|KBio1_001372|KBio2_002500|KBio2_005068|KBio2_007636|KBio3_001544|Emodin - CAS 518-82-1|HMS2230K22|HMS3261P05|HMS3373B16|HMS3655H22|BCP18372|EX-A6778|TNP00318|9| 1|3|8-trihydroxy-6-methyl-|Tox21_202999|Tox21_303218|Tox21_500552|CCG-35263|LMPK13040008|s2295|STL581876|AKOS003348641|AC-1004|CS-1412|DB07715|KS-5189|LP00552|SDCCGSBI-0050535.P004|SMP2_000211|NCGC00015420-01|NCGC00015420-22|NCGC00091540-02|NCGC00257090-01|NCGC00260544-01|NCGC00261237-01|HY-14393|NCI60_003906|SY050737|1ST000574|6-methyl-1|3|8-tri-hydroxy-anthra-quinone|E0500|EU-0100552|NS00014575|SW219906-1|Emodin| from Frangula bark| >=90% (HPLC)|E 7881|EN300-179559|K00056|Emodin; 6-Methyl-1|3|8-trihydroxyanthraquinone|A828825|Q-100581|Q4348178|BRD-K58685305-001-03-0|1|3|8-Trihydroxy-6-methyl-9|10-anthracenedione| 9CI|Emodin| United States Pharmacopeia (USP) Reference Standard|1|3|8-trihydroxy-6-methyl-anthracene-9|10-dione;3-METHYL-1|6|8-TRIHYDROXYANTHRAQUINONE|Emodin|Rhamnaceae|emodin|FSL0537

>  <cas>  (226) 
518-82-1|Emodin - CAS 518-82-1

$$$$

     RDKit          2D

 18 19  0  0  0  0  0  0  0  0999 V2000
    0.5639    2.9477    0.0000 C   0  0  0  0  0  0  0  0  0  0  0  0
    0.0381    1.5429    0.0000 C   0  0  0  0  0  0  0  0  0  0  0  0
    0.9918    0.3851    0.0000 C   0  0  0  0  0  0  0  0  0  0  0  0
    0.4660   -1.0197    0.0000 C   0  0  0  0  0  0  0  0  0  0  0  0
    1.4197   -2.1775    0.0000 C   0  0  0  0  0  0  0  0  0  0  0  0
    2.8992   -1.9305    0.0000 O   0  0  0  0  0  0  0  0  0  0  0  0
    3.4250   -0.5257    0.0000 C   0  0  0  0  0  0  0  0  0  0  0  0
    4.9045   -0.2786    0.0000 C   0  0  0  0  0  0  0  0  0  0  0  0
    2.4713    0.6321    0.0000 C   0  0  0  0  0  0  0  0  0  0  0  0
    2.9971    2.0369    0.0000 C   0  0  0  0  0  0  0  0  0  0  0  0
   -1.0136   -1.2667    0.0000 C   0  0  0  0  0  0  0  0  0  0  0  0
   -1.5394   -2.6716    0.0000 O   0  0  0  0  0  0  0  0  0  0  0  0
   -1.9672   -0.1090    0.0000 C   0  0  0  0  0  0  0  0  0  0  0  0
   -3.4468   -0.3560    0.0000 C   0  0  0  0  0  0  0  0  0  0  0  0
   -3.9726   -1.7608    0.0000 O   0  0  0  0  0  0  0  0  0  0  0  0
   -4.4005    0.8018    0.0000 O   0  0  0  0  0  0  0  0  0  0  0  0
   -1.4414    1.2959    0.0000 C   0  0  0  0  0  0  0  0  0  0  0  0
   -2.3951    2.4536    0.0000 O   0  0  0  0  0  0  0  0  0  0  0  0
  1  2  1  0
  2  3  2  0
  3  4  1  0
  4  5  2  0
  5  6  1  0
  6  7  1  0
  7  8  1  1
  7  9  1  0
  9 10  1  6
  4 11  1  0
 11 12  1  0
 11 13  2  0
 13 14  1  0
 14 15  2  0
 14 16  1  0
 13 17  1  0
 17 18  2  0
 17  2  1  0
  9  3  1  0
M  END
>  <identifier>  (227) 
CNP0295337.2

>  <canonical_smiles>  (227) 
CC1=C2C(=CO[C@H](C)[C@H]2C)C(O)=C(C(=O)O)C1=O

>  <standard_inchi>  (227) 
InChI=1S/C13H14O5/c1-5-7(3)18-4-8-9(5)6(2)11(14)10(12(8)15)13(16)17/h4-5,7,15H,1-3H3,(H,16,17)/t5-,7-/m1/s1

>  <standard_inchi_key>  (227) 
CQIUKKVOEOPUDV-IYSWYEEDSA-N

>  <name>  (227) 
Citrinin

>  <iupac_name>  (227) 
(3~{R},4~{S})-8-hydroxy-3,4,5-trimethyl-6-oxo-3,4-dihydroisochromene-7-carboxylic acid

>  <annotation_level>  (227) 
5

>  <total_atom_count>  (227) 
32

>  <heavy_atom_count>  (227) 
18

>  <molecular_weight>  (227) 
250.25

>  <exact_molecular_weight>  (227) 
250.08412

>  <molecular_formula>  (227) 
C13H14O5

>  <alogp>  (227) 
1.72

>  <topological_polar_surface_area>  (227) 
83.83

>  <rotatable_bond_count>  (227) 
1

>  <hydrogen_bond_acceptors>  (227) 
4

>  <hydrogen_bond_donors>  (227) 
2

>  <hydrogen_bond_acceptors_lipinski>  (227) 
4

>  <hydrogen_bond_donors_lipinski>  (227) 
2

>  <lipinski_rule_of_five_violations>  (227) 
0

>  <aromatic_rings_count>  (227) 
0

>  <qed_drug_likeliness>  (227) 
0.69

>  <formal_charge>  (227) 
0

>  <fractioncsp3>  (227) 
0.39

>  <number_of_minimal_rings>  (227) 
2

>  <van_der_walls_volume>  (227) 
218.94

>  <contains_sugar>  (227) 
False

>  <contains_ring_sugars>  (227) 
False

>  <contains_linear_sugars>  (227) 
False

>  <murcko_framework>  (227) 
O1C=C2C=CCC=C2CC1

>  <np_likeness>  (227) 
2.16

>  <chemical_class>  (227) 
Vinylogous acids

>  <chemical_sub_class>  (227) 
Vinylogous acids

>  <chemical_super_class>  (227) 
Organic acids and derivatives

>  <direct_parent_classification>  (227) 
Vinylogous acids

>  <np_classifier_pathway>  (227) 
Polyketides

>  <np_classifier_superclass>  (227) 
Chromanes

>  <np_classifier_class>  (227) 
Azaphilones

>  <np_classifier_is_glycoside>  (227) 
False

>  <organisms>  (227) 
Aplysia angasi|Carex folliculata|Cercospora ligustri|Cocculus pendulus|Cosmos bipinnatus|Dendroctonus brevicomis|Dictyostelium brefeldianum|Eucalyptus cinerea|Glycosmis parviflora|Guanomyces polythrix|Hypoxis filiformis|Ipomoea tuberosa|Madhuca utilis|Magnolia baillonii|Microsporum sp.|Penicillium citrinum|Penicillium citrinum HGY1-5|Penicillium sp. GO-7|Phyllanthus maderaspatensis|Pimelea simplex|Piper lolot

>  <collections>  (227) 
Australian natural products|BIOFACQUIM|ChEBI NPs|ETM (Ethiopian Traditional Medicine) DB|GNPS (Global Natural Products Social Molecular Networking)|KNApSaCK|Latin America dataset|NPASS|NPEdia|Super Natural II

>  <dois>  (227) 
10.1002/rcm.4133|10.1021/jm200511x|10.1021/np0704708|10.1021/np100470h|10.1021/np990534h

>  <synonyms>  (227) 
Citrinin|(3R-trans)-4|6-Dihydro-8-hydroxy-3|4|5-trimethyl-6-oxo-3H-2- benzopyran-7-carboxylic acid

>  <cas>  (227) 
nan

$$$$

     RDKit          2D

 11 11  0  0  0  0  0  0  0  0999 V2000
   -4.1862    0.7785    0.0000 C   0  0  0  0  0  0  0  0  0  0  0  0
   -2.6933    0.9240    0.0000 O   0  0  0  0  0  0  0  0  0  0  0  0
   -1.8208   -0.2961    0.0000 C   0  0  0  0  0  0  0  0  0  0  0  0
   -2.4412   -1.6618    0.0000 O   0  0  0  0  0  0  0  0  0  0  0  0
   -0.3278   -0.1506    0.0000 C   0  0  0  0  0  0  0  0  0  0  0  0
    0.2926    1.2151    0.0000 C   0  0  0  0  0  0  0  0  0  0  0  0
    1.7855    1.3606    0.0000 C   0  0  0  0  0  0  0  0  0  0  0  0
    2.6580    0.1404    0.0000 C   0  0  0  0  0  0  0  0  0  0  0  0
    4.1509    0.2860    0.0000 O   0  0  0  0  0  0  0  0  0  0  0  0
    2.0376   -1.2252    0.0000 C   0  0  0  0  0  0  0  0  0  0  0  0
    0.5446   -1.3708    0.0000 C   0  0  0  0  0  0  0  0  0  0  0  0
  1  2  1  0
  2  3  1  0
  3  4  2  0
  3  5  1  0
  5  6  2  0
  6  7  1  0
  7  8  2  0
  8  9  1  0
  8 10  1  0
 10 11  2  0
 11  5  1  0
M  END
>  <identifier>  (228) 
CNP0259416.0

>  <canonical_smiles>  (228) 
COC(=O)C1=CC=C(O)C=C1

>  <standard_inchi>  (228) 
InChI=1S/C8H8O3/c1-11-8(10)6-2-4-7(9)5-3-6/h2-5,9H,1H3

>  <standard_inchi_key>  (228) 
LXCFILQKKLGQFO-UHFFFAOYSA-N

>  <name>  (228) 
Methyl 4-hydroxybenzoate

>  <iupac_name>  (228) 
methyl 4-hydroxybenzoate

>  <annotation_level>  (228) 
5

>  <total_atom_count>  (228) 
19

>  <heavy_atom_count>  (228) 
11

>  <molecular_weight>  (228) 
152.15

>  <exact_molecular_weight>  (228) 
152.04734

>  <molecular_formula>  (228) 
C8H8O3

>  <alogp>  (228) 
1.18

>  <topological_polar_surface_area>  (228) 
46.53

>  <rotatable_bond_count>  (228) 
1

>  <hydrogen_bond_acceptors>  (228) 
3

>  <hydrogen_bond_donors>  (228) 
1

>  <hydrogen_bond_acceptors_lipinski>  (228) 
3

>  <hydrogen_bond_donors_lipinski>  (228) 
1

>  <lipinski_rule_of_five_violations>  (228) 
0

>  <aromatic_rings_count>  (228) 
1

>  <qed_drug_likeliness>  (228) 
0.61

>  <formal_charge>  (228) 
0

>  <fractioncsp3>  (228) 
0.13

>  <number_of_minimal_rings>  (228) 
1

>  <van_der_walls_volume>  (228) 
137.59

>  <contains_sugar>  (228) 
False

>  <contains_ring_sugars>  (228) 
False

>  <contains_linear_sugars>  (228) 
False

>  <murcko_framework>  (228) 
c1ccccc1

>  <np_likeness>  (228) 
0.23

>  <chemical_class>  (228) 
Benzene and substituted derivatives

>  <chemical_sub_class>  (228) 
Benzoic acids and derivatives

>  <chemical_super_class>  (228) 
Benzenoids

>  <direct_parent_classification>  (228) 
p-Hydroxybenzoic acid alkyl esters

>  <np_classifier_pathway>  (228) 
Shikimates and Phenylpropanoids

>  <np_classifier_superclass>  (228) 
Phenolic acids (C6-C1)

>  <np_classifier_class>  (228) 
Simple phenolic acids

>  <np_classifier_is_glycoside>  (228) 
False

>  <organisms>  (228) 
A new engineered strain of Saccharomyces cerevisiae INVSc1 [tHMG1 IDI1 ERG20 ERG9]|Achillea biebersteinii|Aconitum campylorrhynchum|Aconitum fauriei|Acrisione denticulata|Aglaia tsangii|Alchornea cordifolia|Alexandrium excavatum|Alocasia macrorrhiza|Alstonia angustiloba|Amomum daniellii|Anaxagorea dolichocarpa|Andrographis paniculata|Annona cherimola|Annona purpurea|Aquilaria sinensis|Archidendron ellipticum|Aristolochia elegans|Aristolochia heterophylla Hemsl|Artemisia arbuscula|Artemisia pectinata|Aspergillus microcysticus|Aspergillus multicolor|Atalantia buxifolia|Atalantia wightii|Avena fatua|Baccharis dracunculifolia|Baccharis grandicapitulata|Baccharis sagittalis|Balanophora japonica|Beesia calthifolia|Begonia nantoensis|Berberis orthobotrys|Blumea eriantha|Boschniakia rossica|Botrychium ternatum|Bulbinella floribunda|Bursera kerberi|Calcarisporium thermophilum|Calycotome villosa|Caryocar villosum|Cedrela fissilis|Ceriops decandra|Chalina arbuscula|Cheilanthes mysurensis|Chiton tuberculatus|Cipadessa fruticosa|Citrus reshni|Cladonia impexa|Cladosporium cucumerinum|Clerodendrum trichotomum|Clinacanthus nutans|Codium dwarkense|Codonopsis pilosula var. modesta|Coffea liberica var. dewevrei|Colladonia triquetra|Corydalis persica|Corynanthe pachyceras|Costasiella ocellifera|Cota tinctoria|Creosphaeria sassafras|Crocus sativus|Crotalaria stolzii|Cucurbita moschata|Cullen corylifolium|Curcuma aeruginosa|Cybister confusus|Cylas formicarius|Cymbastela coralliophila|Cynoctonum wilfordii|Cynoglossum amabile|Dacrycarpus imbricatus|Daemonorops draco|Dalbergia ecastaphyllum|Delisea elegans|Delphinium giraldii|Dendrobates azureus|Diplazium esculentum|Doris montereyensis|Dorycnium suffruticosum|Duddingtonia flagrans|Dytiscus marginalis|Egregia menziesii|Emericellopsis minima|Eucalyptus albens|Euonymus fortunei|Euonymus laxiflorus|Euphorbia formosana|Euploca racemosa|Excoecaria acerifolia|Ferula hezarlalehzarica|Fructus psoraleae corylifoliae|Fusarium avenaceum|Fusarium sacchari|Ganoderma lucidum|Garrya laurifolia|Glochidion philippicum|Glycosmis pseudoracemosa|Gonocaryum calleryanum|Goupia glabra|Grevillea robusta|Guanomyces polythrix|Gutierrezia dracunculoides|Hedysarum gmelini|Helenium integrifolium|Helichrysum fulvum|Heliotropium glutinosum|Helipterum gnaphaloides|Herba cichorii|Himalaiella deltoidea|Homo sapiens|Hygrophorus eburneus|Ilex brevicuspis|Inula grantioides|Ipomoea pes-caprae|Juniperus horizontalis|Juniperus scopulorum|Lactarius sanguifluus|Laggera alata|Lasianthaea podocephala|Lathyrus tingitanus|Liparis loeselii|Lithothamnion corallioides|Littorina littorea|Lonchocarpus urucu|Lupinus cosentinii|Machilus zuihoensis|Magnolia pterocarpa|Medinilla magnifica|Melampodium leucanthum|Mesua ferrea|Microglossa zeylanica|Micromonospora echinospora|Monascus pilosus BCRC38072|Monopteryx uaucu|Morella pensylvanica|Moringa oleifera|Myoporum platycarpum|Myristica argentea|Narcissus triandrus|Neolitsea acuminatissima|Nigrospora sphaerica|Ocimum gratissimum|Ongokea gore|Onobrychis bobrovii|Ormosia dasycarpa|Osmitopsis osmitoides|Palaquium canaliculatum|Palicourea coriacea|Papaver persicum|Papaver pseudocanescens|Paracoccus denitrificans|Pedicularis procera|Pellacalyx axillaris|Peperomia sui|Pestalotiopsis oenotherae|Petteria ramentacea|Peucedanum oroselinum|Phellodendron amurense|Phellodendron amurense var. wilsonii|Phellodendron japonicum|Phellodendron japonicum MAXIM|Phlojodicarpus sibiricus|Phlomis crinita|Physalis sordida|Piper brachystachyum|Piper sylvaticum|Pithecellobium racemosum|Plectosphaerella cucumerina|Plectranthus caninus|Plexaurella nutans|Podospora curvicolla|Psammosilene tunicoides|Pseudocyphellaria australiensis|Pseudocyphellaria faveolata|Psidium acutangulum|Radix zanthoxyli|Rauvolfia salicifolia|Renealmia alpinia|Rhizoctonia repens|Rhizoplaca baranowii|Rhododendron mucronulatum|Rohdea chinensis|Salmonella enterica subsp. enterica serovar bovismorbificans|Sanicula epipactis|Sarcophyton buitendijki|Sarcophyton flexuosum|Scopolia atropoides|Selinum libanotis|Senecio ambraceus|Senecio cathcartensis|Senecio congestus|Senecio heliopsis|Senecio roseiflorus|Sequoia sempervirens|Sideritis dasygnaphala|Solidago petiolaris|Sphaerella asteroma|Stellaria media|Stigma croci|Stigmatella erecta|Streptomyces melanogenes|Streptomyces parvisporogenes|Streptomyces purpurogeneiscleroticus|Streptomyces roseoverticillatus|Streptomyces xiamenensis MCCC 1A01570|Strychnos spinosa|Tabernaemontana divaricata|Tachigalia paniculata|Tanacetum praeteritum|Taonia australasica|Taraxacum formosanum|Taxus drupacea|Tephroseris kirilowii|Tetradium glabrifolium|Teucrium heterophyllum|Trifolium strepens|Tupistra chinensis|Viscum articulactum|Vitex rotundifolia|Vittaria anguste-elongata|Wikstroemia indica|Zaluzania grayana|Zanthoxylum acutifolium|Zanthoxylum ailanthoides|Zephyranthes flava

>  <collections>  (228) 
ANPDB|AnalytiCon Discovery NPs|Australian natural products|BIOFACQUIM|CMAUP (cCollective molecular activities of useful plants)|EMNPD|FooDB|InterBioScreen Ltd|KNApSaCK|Latin America dataset|Mitishamba database|NANPDB (Natural Products from Northern African Sources)|NPASS|Phyto4Health|PubChem NPs|Specs Natural Products|StreptomeDB|Super Natural II|TCMDB-Taiwan (Traditional Chinese Medicine database)|TCMID (Traditional Chinese Medicine Integrated Database)|TIPdb (database of Taiwan indigenous plants)|UNPD (Universal Natural Products Database)|VietHerb

>  <dois>  (228) 
10.1016/j.bse.2018.04.004|10.1016/j.phytol.2013.09.001|10.1021/np990534h|10.1080/14786419.2018.1508148|10.3390/molecules16119331

>  <synonyms>  (228) 
METHYLPARABEN|99-76-3|Methyl paraben|Methyl p-hydroxybenzoate|Nipagin|Tegosept M|Moldex|Maseptol|Preserval M|Methaben|Metoxyde|Paridol|Septos|Solbrol|Methyl butex|p-Hydroxybenzoic acid methyl ester|p-Methoxycarbonylphenol|Benzoic acid| 4-hydroxy-| methyl ester|Methyl chemosept|p-Carbomethoxyphenol|Methyl parasept|Nipagin M|Aseptoform|Methylben|Abiol|Solbrol M|FEMA No. 2710|Killitol|FEMA Number 2710|Methyl ester of p-hydroxybenzoic acid|p-Oxybenzoesauremethylester|Methylparaben e218|NSC 3827|MFCD00002352|CCRIS 3946|HSDB 1184|methyl 4- hydroxybenzoate|Methyl-d3Paraben|UNII-A2I8C7HI9T|NSC-3827|EINECS 202-785-7|A2I8C7HI9T|EPA Pesticide Chemical Code 061201|NSC-406127|BRN 0509801|DTXSID4022529|INS number 218|CHEBI:31835|Methylis hydroxybenzoas|AI3-01336|INS-218|4-HYDROXY-BENZOIC ACID METHYL ESTER|Methylester kyseliny p-hydroxybenzoove|E218|CHEMBL325372|DTXCID402529|INS NO.218|E-218|EC 202-785-7|NCGC00159376-02|E 218|METHYLPARABEN (II)|METHYLPARABEN II|WLN: QR DVO1|METHYLPARABEN (USP-RS)|Methylparaben USAN|Caswell No. 573PP|4-Hydroxybenzoic acid-methyl ester 1000 microg\/mL in Acetonitrile|METHYL HYDROXYBENZOATE (MART.)|CAS-99-76-3|SMR000036660|METHYL PARAHYDROXYBENZOATE (EP MONOGRAPH)|METHYL SALICYLATE IMPURITY C (EP IMPURITY)|p-Oxybenzoesauremethylester German|PROPYL HYDROXYBENZOATE IMPURITY B (EP IMPURITY)|Metagin|METHYL4-HYDROXYBENZOATE|Lexgard M|Paraben M|(Methyl Paraben)|Methylparaben| NF|Methylparaben (TN)|Solparol (Salt\/Mix)|Methyl 4-?Hydroxybenzoate|Preserval MS (Salt\/Mix)|bmse010009|METHYLPARABEN FCC|cid_7456|SCHEMBL4440|isLeaf Tattoo Eyebrow Brown|METHYLPARABEN HSDB|METHYLPARABEN VANDF|MLS001304047|MLS001304187|BIDD:ER0241|4-hydroxybenzoate methyl ester|INS No. 218|METHYLPARABEN WHO-DD|AMY901|GTPL6273|Methyl parahydroxybenzoate (TN)|methyl 4-hydroxybenzenecarboxylate|HMS2883I08|Methyl Paraben| analytical standard|CS-D1181|HY-N0349|Tox21_111616|Tox21_202318|Tox21_300009|BBL005648|BDBM50209100|CK1194|s3985|STK802470|AKOS000119910|CCG-266228|DB14212|METHYL HYDROXYBENZOATE WHO-IP|METHYL P-HYDROXYBENZOATE FHFI|METHYL PARAHYDROXYBENZOATE JAN|USEPA\/OPP Pesticide Code: 061201|Methyl 4-hydroxybenzoate| >=99%| FCC|NCGC00253939-01|NCGC00259867-01|SY006626|Methyl 4-?Hydroxybenzoate(Methyl Paraben)|BENZOIC ACID|4-HYDROXY|METHYL ESTER|DB-080628|H0216|M2206|Methyl 4-hydroxybenzoate| analytical standard|Methyl 4-hydroxybenzoate| p.a.| 98-102%|NS00001849|EN300-15481|isLeaf Long Lasting Waterproof Eyeliner Black|METHYLIS HYDROXYBENZOAS WHO-IP LATIN|D01400|Methyl 4-hydroxybenzoate| USP| 98.0-102.0%|A846079|Q229987|Q-200479|Methyl 4-hydroxybenzoate| SAJ first grade| >=98.0%|Methyl 4-hydroxybenzoate| tested according to Ph.Eur.|Z19674820|F1908-0119|Methyl 4-hydroxybenzoate| BioXtra| >=99.0% (titration)|Methylparaben| certified reference material| TraceCERT(R)|Methyl 4-hydroxybenzoate| ReagentPlus(R)| >=99.0%| crystalline|Methylparaben| United States Pharmacopeia (USP) Reference Standard|InChI=1\/C8H8O3\/c1-11-8(10)6-2-4-7(9)5-3-6\/h2-5|9H|1H|Methyl 4-hydroxybenzoate| BioReagent| suitable for insect cell culture|Methyl parahydroxybenzoate| European Pharmacopoeia (EP) Reference Standard|Methylparaben| Pharmaceutical Secondary Standard; Certified Reference Material|4-hydroxymethylbenzoate|nipagin M

>  <cas>  (228) 
99-76-3

$$$$

     RDKit          2D

 34 38  0  0  0  0  0  0  0  0999 V2000
   -3.1546   -1.9279    0.0000 C   0  0  0  0  0  0  0  0  0  0  0  0
   -4.6143   -2.2730    0.0000 C   0  0  0  0  0  0  0  0  0  0  0  0
   -5.0454   -3.7097    0.0000 C   0  0  0  0  0  0  0  0  0  0  0  0
   -5.6431   -1.1813    0.0000 C   0  0  0  0  0  0  0  0  0  0  0  0
   -5.2120    0.2554    0.0000 C   0  0  0  0  0  0  0  0  0  0  0  0
   -3.7522    0.6005    0.0000 C   0  0  0  0  0  0  0  0  0  0  0  0
   -3.3212    2.0372    0.0000 C   0  0  0  0  0  0  0  0  0  0  0  0
   -4.3499    3.1289    0.0000 C   0  0  0  0  0  0  0  0  0  0  0  0
   -1.8614    2.3823    0.0000 C   0  0  0  0  0  0  0  0  0  0  0  0
   -1.2825    3.7661    0.0000 C   0  0  0  0  0  0  0  0  0  0  0  0
    0.2124    3.6432    0.0000 C   0  0  0  0  0  0  0  0  0  0  0  0
    0.5575    2.1834    0.0000 C   0  0  0  0  0  0  0  0  0  0  0  0
    1.7507    3.0924    0.0000 C   0  0  0  0  0  0  0  0  0  0  0  0
    1.8732    1.4630    0.0000 C   0  0  0  0  0  0  0  0  0  0  0  0
    3.1549    2.2423    0.0000 C   0  0  0  0  0  0  0  0  0  0  0  0
    4.4706    1.5220    0.0000 C   0  0  0  0  0  0  0  0  0  0  0  0
    4.5046    0.0223    0.0000 C   0  0  0  0  0  0  0  0  0  0  0  0
    5.8203   -0.6980    0.0000 C   0  0  0  0  0  0  0  0  0  0  0  0
    7.3031   -0.9249    0.0000 C   0  0  0  0  0  0  0  0  0  0  0  0
    6.3013    0.7228    0.0000 C   0  0  0  0  0  0  0  0  0  0  0  0
    5.8544   -2.1976    0.0000 C   0  0  0  0  0  0  0  0  0  0  0  0
    7.1701   -2.9180    0.0000 O   0  0  0  0  0  0  0  0  0  0  0  0
    4.5727   -2.9769    0.0000 C   0  0  0  0  0  0  0  0  0  0  0  0
    3.2569   -2.2565    0.0000 C   0  0  0  0  0  0  0  0  0  0  0  0
    3.2229   -0.7569    0.0000 C   0  0  0  0  0  0  0  0  0  0  0  0
    1.9412   -1.5362    0.0000 C   0  0  0  0  0  0  0  0  0  0  0  0
    1.9072   -0.0366    0.0000 C   0  0  0  0  0  0  0  0  0  0  0  0
    0.6255   -0.8158    0.0000 C   0  0  0  0  0  0  0  0  0  0  0  0
   -0.6902   -0.0955    0.0000 C   0  0  0  0  0  0  0  0  0  0  0  0
   -0.7242    1.4041    0.0000 C   0  0  0  0  0  0  0  0  0  0  0  0
   -2.0803    0.7631    0.0000 C   0  0  0  0  0  0  0  0  0  0  0  0
   -7.1028   -1.5264    0.0000 C   0  0  0  0  0  0  0  0  0  0  0  0
   -7.5339   -2.9631    0.0000 C   0  0  0  0  0  0  0  0  0  0  0  0
   -8.1315   -0.4347    0.0000 C   0  0  0  0  0  0  0  0  0  0  0  0
  1  2  2  0
  2  3  1  0
  2  4  1  0
  4  5  1  6
  5  6  1  0
  6  7  1  0
  7  8  1  1
  7  9  1  0
  9 10  1  1
 10 11  1  0
 11 12  1  0
 12 13  1  6
 12 14  1  0
 14 15  1  6
 15 16  1  0
 17 16  1  1
 17 18  1  0
 18 19  1  0
 18 20  1  0
 18 21  1  0
 21 22  2  0
 21 23  1  0
 23 24  1  0
 25 24  1  6
 25 26  1  0
 27 26  1  1
 27 28  1  0
 28 29  1  0
 29 30  1  0
 30 31  1  1
  4 32  1  0
 32 33  1  0
 32 34  1  0
 30  9  1  0
 30 12  1  0
 27 14  1  0
 25 17  1  0
 27 25  1  0
M  END
>  <identifier>  (229) 
CNP0325888.1

>  <canonical_smiles>  (229) 
C=C(C)[C@@H](CC[C@@H](C)[C@H]1CC[C@@]2(C)[C@@H]3CC[C@H]4C(C)(C)C(=O)CC[C@@]45C[C@@]35CC[C@]12C)C(C)C

>  <standard_inchi>  (229) 
InChI=1S/C33H54O/c1-21(2)24(22(3)4)11-10-23(5)25-14-16-31(9)27-13-12-26-29(6,7)28(34)15-17-32(26)20-33(27,32)19-18-30(25,31)8/h22-27H,1,10-20H2,2-9H3/t23-,24-,25-,26+,27+,30-,31+,32-,33+/m1/s1

>  <standard_inchi_key>  (229) 
OOBHNVPLRWKOTJ-ZBKSDFMUSA-N

>  <name>  (229) 
Tillandsinone

>  <iupac_name>  (229) 
(1~{S},3~{R},8~{R},11~{S},12~{S},15~{R},16~{R})-15-[(1~{R},4~{S})-4-isopropyl-1,5-dimethyl-hex-5-enyl]-7,7,12,16-tetramethyl-pentacyclo[9.7.0.0^{1,3}.0^{3,8}.0^{12,16}]octadecan-6-one

>  <annotation_level>  (229) 
5

>  <total_atom_count>  (229) 
88

>  <heavy_atom_count>  (229) 
34

>  <molecular_weight>  (229) 
466.79

>  <exact_molecular_weight>  (229) 
466.41747

>  <molecular_formula>  (229) 
C33H54O

>  <alogp>  (229) 
9.26

>  <topological_polar_surface_area>  (229) 
17.07

>  <rotatable_bond_count>  (229) 
6

>  <hydrogen_bond_acceptors>  (229) 
1

>  <hydrogen_bond_donors>  (229) 
0

>  <hydrogen_bond_acceptors_lipinski>  (229) 
1

>  <hydrogen_bond_donors_lipinski>  (229) 
0

>  <lipinski_rule_of_five_violations>  (229) 
1

>  <aromatic_rings_count>  (229) 
0

>  <qed_drug_likeliness>  (229) 
0.36

>  <formal_charge>  (229) 
0

>  <fractioncsp3>  (229) 
0.91

>  <number_of_minimal_rings>  (229) 
5

>  <van_der_walls_volume>  (229) 
494.48

>  <contains_sugar>  (229) 
False

>  <contains_ring_sugars>  (229) 
False

>  <contains_linear_sugars>  (229) 
False

>  <murcko_framework>  (229) 
C1CCC23CC43CCC5CCCC5C4CCC2C1

>  <np_likeness>  (229) 
3.00

>  <chemical_class>  (229) 
Steroids and steroid derivatives

>  <chemical_sub_class>  (229) 
Cycloartanols and derivatives

>  <chemical_super_class>  (229) 
Lipids and lipid-like molecules

>  <direct_parent_classification>  (229) 
Cycloartanols and derivatives

>  <np_classifier_pathway>  (229) 
Terpenoids

>  <np_classifier_superclass>  (229) 
Triterpenoids

>  <np_classifier_class>  (229) 
Cycloartane triterpenoids

>  <np_classifier_is_glycoside>  (229) 
False

>  <organisms>  (229) 
Tillandsia fasciculata

>  <collections>  (229) 
BIOFACQUIM|KNApSaCK|Latin America dataset|Super Natural II

>  <dois>  (229) 
10.1021/np0100744

>  <synonyms>  (229) 
(1S|3R|8R|11S|12S|15R|16R)-7|7|12|16-tetramethyl-15-(2R|5S)-6-methyl-5-propan-2-ylhept-6-en-2-ylpentacyclo9.7.0.01|3.03|8.012|16octadecan-6-one|Tillandsinone

>  <cas>  (229) 
nan

$$$$

     RDKit          2D

 34 38  0  0  0  0  0  0  0  0999 V2000
   -3.6541   -2.5153    0.0000 C   0  0  0  0  0  0  0  0  0  0  0  0
   -5.0174   -3.1410    0.0000 C   0  0  0  0  0  0  0  0  0  0  0  0
   -5.1572   -4.6344    0.0000 C   0  0  0  0  0  0  0  0  0  0  0  0
   -6.2409   -2.2732    0.0000 C   0  0  0  0  0  0  0  0  0  0  0  0
   -7.6042   -2.8988    0.0000 C   0  0  0  0  0  0  0  0  0  0  0  0
   -6.1011   -0.7797    0.0000 C   0  0  0  0  0  0  0  0  0  0  0  0
   -4.7378   -0.1540    0.0000 C   0  0  0  0  0  0  0  0  0  0  0  0
   -4.5980    1.3394    0.0000 C   0  0  0  0  0  0  0  0  0  0  0  0
   -5.8215    2.2073    0.0000 C   0  0  0  0  0  0  0  0  0  0  0  0
   -3.2347    1.9651    0.0000 C   0  0  0  0  0  0  0  0  0  0  0  0
   -2.9396    3.4358    0.0000 C   0  0  0  0  0  0  0  0  0  0  0  0
   -1.4497    3.6095    0.0000 C   0  0  0  0  0  0  0  0  0  0  0  0
   -0.8240    2.2462    0.0000 C   0  0  0  0  0  0  0  0  0  0  0  0
    0.1669    3.3723    0.0000 C   0  0  0  0  0  0  0  0  0  0  0  0
    0.6078    1.7990    0.0000 C   0  0  0  0  0  0  0  0  0  0  0  0
    1.7110    2.8153    0.0000 C   0  0  0  0  0  0  0  0  0  0  0  0
    3.1427    2.3680    0.0000 C   0  0  0  0  0  0  0  0  0  0  0  0
    3.4713    0.9045    0.0000 C   0  0  0  0  0  0  0  0  0  0  0  0
    4.9031    0.4572    0.0000 C   0  0  0  0  0  0  0  0  0  0  0  0
    6.4014    0.5266    0.0000 C   0  0  0  0  0  0  0  0  0  0  0  0
    5.0949    1.9449    0.0000 C   0  0  0  0  0  0  0  0  0  0  0  0
    5.2316   -1.0064    0.0000 C   0  0  0  0  0  0  0  0  0  0  0  0
    6.6634   -1.4537    0.0000 O   0  0  0  0  0  0  0  0  0  0  0  0
    6.9919   -2.9172    0.0000 C   0  0  0  0  0  0  0  0  0  0  0  0
    8.4237   -3.3645    0.0000 O   0  0  0  0  0  0  0  0  0  0  0  0
    4.1284   -2.0227    0.0000 C   0  0  0  0  0  0  0  0  0  0  0  0
    2.6966   -1.5754    0.0000 C   0  0  0  0  0  0  0  0  0  0  0  0
    2.3681   -0.1119    0.0000 C   0  0  0  0  0  0  0  0  0  0  0  0
    1.2648   -1.1282    0.0000 C   0  0  0  0  0  0  0  0  0  0  0  0
    0.9363    0.3354    0.0000 C   0  0  0  0  0  0  0  0  0  0  0  0
   -0.1669   -0.6809    0.0000 C   0  0  0  0  0  0  0  0  0  0  0  0
   -1.5987   -0.2336    0.0000 C   0  0  0  0  0  0  0  0  0  0  0  0
   -1.9272    1.2299    0.0000 C   0  0  0  0  0  0  0  0  0  0  0  0
   -3.1306    0.3345    0.0000 C   0  0  0  0  0  0  0  0  0  0  0  0
  1  2  2  0
  2  3  1  0
  2  4  1  0
  4  5  1  1
  4  6  1  0
  6  7  1  0
  7  8  1  0
  8  9  1  1
  8 10  1  0
 10 11  1  1
 11 12  1  0
 12 13  1  0
 13 14  1  6
 13 15  1  0
 15 16  1  0
 16 17  1  0
 17 18  1  0
 18 19  1  0
 19 20  1  0
 19 21  1  0
 19 22  1  0
 22 23  1  1
 23 24  1  0
 24 25  2  0
 22 26  1  0
 26 27  1  0
 28 27  1  6
 28 29  1  0
 30 29  1  1
 30 31  1  0
 31 32  1  0
 32 33  1  0
 33 34  1  1
 33 10  1  0
 33 13  1  0
 30 15  1  0
 28 18  1  0
 30 28  1  0
M  END
>  <identifier>  (230) 
CNP0158665.1

>  <canonical_smiles>  (230) 
C=C(C)[C@@H](C)CC[C@@H](C)[C@H]1CC[C@@]2(C)C3CCC4C(C)(C)[C@@H](OC=O)CC[C@@]45C[C@@]35CC[C@]12C

>  <standard_inchi>  (230) 
InChI=1S/C32H52O2/c1-21(2)22(3)9-10-23(4)24-13-15-30(8)26-12-11-25-28(5,6)27(34-20-33)14-16-31(25)19-32(26,31)18-17-29(24,30)7/h20,22-27H,1,9-19H2,2-8H3/t22-,23+,24+,25?,26?,27-,29+,30-,31+,32-/m0/s1

>  <standard_inchi_key>  (230) 
FEOYVNADIQNWQG-VGOCLHBASA-N

>  <name>  (230) 
nan

>  <iupac_name>  (230) 
[(1~{S},3~{R},6~{S},12~{S},15~{R},16~{R})-7,7,12,16-tetramethyl-15-[(1~{R},4~{S})-1,4,5-trimethylhex-5-enyl]-6-pentacyclo[9.7.0.0^{1,3}.0^{3,8}.0^{12,16}]octadecanyl] formate

>  <annotation_level>  (230) 
5

>  <total_atom_count>  (230) 
86

>  <heavy_atom_count>  (230) 
34

>  <molecular_weight>  (230) 
468.77

>  <exact_molecular_weight>  (230) 
468.39673

>  <molecular_formula>  (230) 
C32H52O2

>  <alogp>  (230) 
8.60

>  <topological_polar_surface_area>  (230) 
26.30

>  <rotatable_bond_count>  (230) 
7

>  <hydrogen_bond_acceptors>  (230) 
2

>  <hydrogen_bond_donors>  (230) 
0

>  <hydrogen_bond_acceptors_lipinski>  (230) 
2

>  <hydrogen_bond_donors_lipinski>  (230) 
0

>  <lipinski_rule_of_five_violations>  (230) 
1

>  <aromatic_rings_count>  (230) 
0

>  <qed_drug_likeliness>  (230) 
0.28

>  <formal_charge>  (230) 
0

>  <fractioncsp3>  (230) 
0.91

>  <number_of_minimal_rings>  (230) 
5

>  <van_der_walls_volume>  (230) 
490.00

>  <contains_sugar>  (230) 
False

>  <contains_ring_sugars>  (230) 
False

>  <contains_linear_sugars>  (230) 
False

>  <murcko_framework>  (230) 
C1CCC23CC43CCC5CCCC5C4CCC2C1

>  <np_likeness>  (230) 
3.20

>  <chemical_class>  (230) 
Steroids and steroid derivatives

>  <chemical_sub_class>  (230) 
Cycloartanols and derivatives

>  <chemical_super_class>  (230) 
Lipids and lipid-like molecules

>  <direct_parent_classification>  (230) 
Cycloartanols and derivatives

>  <np_classifier_pathway>  (230) 
Terpenoids

>  <np_classifier_superclass>  (230) 
Triterpenoids

>  <np_classifier_class>  (230) 
Cycloartane triterpenoids

>  <np_classifier_is_glycoside>  (230) 
False

>  <organisms>  (230) 
Tillandsia fasciculata

>  <collections>  (230) 
BIOFACQUIM|Latin America dataset

>  <dois>  (230) 
10.1021/np0100744

>  <synonyms>  (230) 
Cyclolaudenyl formate

>  <cas>  (230) 
nan

$$$$

     RDKit          2D

 32 36  0  0  0  0  0  0  0  0999 V2000
   -3.4965   -2.2784    0.0000 C   0  0  0  0  0  0  0  0  0  0  0  0
   -4.9293   -2.7225    0.0000 C   0  0  0  0  0  0  0  0  0  0  0  0
   -5.2611   -4.1853    0.0000 C   0  0  0  0  0  0  0  0  0  0  0  0
   -6.0302   -1.7037    0.0000 C   0  0  0  0  0  0  0  0  0  0  0  0
   -7.4630   -2.1477    0.0000 C   0  0  0  0  0  0  0  0  0  0  0  0
   -5.6984   -0.2409    0.0000 C   0  0  0  0  0  0  0  0  0  0  0  0
   -4.2656    0.2032    0.0000 C   0  0  0  0  0  0  0  0  0  0  0  0
   -3.9338    1.6660    0.0000 C   0  0  0  0  0  0  0  0  0  0  0  0
   -5.0347    2.6848    0.0000 C   0  0  0  0  0  0  0  0  0  0  0  0
   -2.5010    2.1101    0.0000 C   0  0  0  0  0  0  0  0  0  0  0  0
   -2.0181    3.5302    0.0000 C   0  0  0  0  0  0  0  0  0  0  0  0
   -0.5183    3.5098    0.0000 C   0  0  0  0  0  0  0  0  0  0  0  0
   -0.0742    2.0770    0.0000 C   0  0  0  0  0  0  0  0  0  0  0  0
    1.0541    3.0654    0.0000 C   0  0  0  0  0  0  0  0  0  0  0  0
    1.2877    1.4483    0.0000 C   0  0  0  0  0  0  0  0  0  0  0  0
    2.5131    2.3133    0.0000 C   0  0  0  0  0  0  0  0  0  0  0  0
    3.8750    1.6846    0.0000 C   0  0  0  0  0  0  0  0  0  0  0  0
    4.0114    0.1908    0.0000 C   0  0  0  0  0  0  0  0  0  0  0  0
    5.3733   -0.4379    0.0000 C   0  0  0  0  0  0  0  0  0  0  0  0
    6.8681   -0.5629    0.0000 C   0  0  0  0  0  0  0  0  0  0  0  0
    5.7560    1.0125    0.0000 C   0  0  0  0  0  0  0  0  0  0  0  0
    5.5097   -1.9317    0.0000 C   0  0  0  0  0  0  0  0  0  0  0  0
    6.8716   -2.5604    0.0000 O   0  0  0  0  0  0  0  0  0  0  0  0
    4.2843   -2.7967    0.0000 C   0  0  0  0  0  0  0  0  0  0  0  0
    2.9224   -2.1680    0.0000 C   0  0  0  0  0  0  0  0  0  0  0  0
    2.7860   -0.6742    0.0000 C   0  0  0  0  0  0  0  0  0  0  0  0
    1.5606   -1.5393    0.0000 C   0  0  0  0  0  0  0  0  0  0  0  0
    1.4241   -0.0455    0.0000 C   0  0  0  0  0  0  0  0  0  0  0  0
    0.1987   -0.9106    0.0000 C   0  0  0  0  0  0  0  0  0  0  0  0
   -1.1632   -0.2818    0.0000 C   0  0  0  0  0  0  0  0  0  0  0  0
   -1.2996    1.2119    0.0000 C   0  0  0  0  0  0  0  0  0  0  0  0
   -2.6088    0.4797    0.0000 C   0  0  0  0  0  0  0  0  0  0  0  0
  1  2  2  0
  2  3  1  0
  2  4  1  0
  4  5  1  1
  4  6  1  0
  6  7  1  0
  7  8  1  0
  8  9  1  1
  8 10  1  0
 10 11  1  1
 11 12  1  0
 12 13  1  0
 13 14  1  6
 13 15  1  0
 15 16  1  6
 16 17  1  0
 18 17  1  1
 18 19  1  0
 19 20  1  0
 19 21  1  0
 19 22  1  0
 22 23  2  0
 22 24  1  0
 24 25  1  0
 26 25  1  6
 26 27  1  0
 28 27  1  1
 28 29  1  0
 29 30  1  0
 30 31  1  0
 31 32  1  1
 31 10  1  0
 31 13  1  0
 28 15  1  0
 26 18  1  0
 28 26  1  0
M  END
>  <identifier>  (231) 
CNP0214511.1

>  <canonical_smiles>  (231) 
C=C(C)[C@@H](C)CC[C@@H](C)[C@H]1CC[C@@]2(C)[C@@H]3CC[C@H]4C(C)(C)C(=O)CC[C@@]45C[C@@]35CC[C@]12C

>  <standard_inchi>  (231) 
InChI=1S/C31H50O/c1-20(2)21(3)9-10-22(4)23-13-15-29(8)25-12-11-24-27(5,6)26(32)14-16-30(24)19-31(25,30)18-17-28(23,29)7/h21-25H,1,9-19H2,2-8H3/t21-,22+,23+,24-,25-,28+,29-,30+,31-/m0/s1

>  <standard_inchi_key>  (231) 
HCUKNXBLSIDEJS-RUCUJZTOSA-N

>  <name>  (231) 
Cyclolaudenone

>  <iupac_name>  (231) 
(1~{S},3~{R},8~{R},11~{S},12~{S},15~{R},16~{R})-7,7,12,16-tetramethyl-15-[(1~{R},4~{S})-1,4,5-trimethylhex-5-enyl]pentacyclo[9.7.0.0^{1,3}.0^{3,8}.0^{12,16}]octadecan-6-one

>  <annotation_level>  (231) 
5

>  <total_atom_count>  (231) 
82

>  <heavy_atom_count>  (231) 
32

>  <molecular_weight>  (231) 
438.74

>  <exact_molecular_weight>  (231) 
438.38617

>  <molecular_formula>  (231) 
C31H50O

>  <alogp>  (231) 
8.62

>  <topological_polar_surface_area>  (231) 
17.07

>  <rotatable_bond_count>  (231) 
5

>  <hydrogen_bond_acceptors>  (231) 
1

>  <hydrogen_bond_donors>  (231) 
0

>  <hydrogen_bond_acceptors_lipinski>  (231) 
1

>  <hydrogen_bond_donors_lipinski>  (231) 
0

>  <lipinski_rule_of_five_violations>  (231) 
1

>  <aromatic_rings_count>  (231) 
0

>  <qed_drug_likeliness>  (231) 
0.39

>  <formal_charge>  (231) 
0

>  <fractioncsp3>  (231) 
0.90

>  <number_of_minimal_rings>  (231) 
5

>  <van_der_walls_volume>  (231) 
461.92

>  <contains_sugar>  (231) 
False

>  <contains_ring_sugars>  (231) 
False

>  <contains_linear_sugars>  (231) 
False

>  <murcko_framework>  (231) 
C1CCC23CC43CCC5CCCC5C4CCC2C1

>  <np_likeness>  (231) 
3.22

>  <chemical_class>  (231) 
Steroids and steroid derivatives

>  <chemical_sub_class>  (231) 
Cycloartanols and derivatives

>  <chemical_super_class>  (231) 
Lipids and lipid-like molecules

>  <direct_parent_classification>  (231) 
Cycloartanols and derivatives

>  <np_classifier_pathway>  (231) 
Terpenoids

>  <np_classifier_superclass>  (231) 
Triterpenoids

>  <np_classifier_class>  (231) 
Cycloartane triterpenoids

>  <np_classifier_is_glycoside>  (231) 
False

>  <organisms>  (231) 
Papaver somniferum|Tillandsia fasciculata

>  <collections>  (231) 
BIOFACQUIM|KNApSaCK|Latin America dataset|Super Natural II|TCMDB-Taiwan (Traditional Chinese Medicine database)

>  <dois>  (231) 
10.1021/np0100744

>  <synonyms>  (231) 
(1S|3R|8R|11S|12S|15R|16R)-15-(2R|5S)-5|6-dimethylhept-6-en-2-yl-7|7|12|16-tetramethylpentacyclo9.7.0.01|3.03|8.012|16octadecan-6-one|Cyclolaudenone

>  <cas>  (231) 
nan

$$$$

     RDKit          2D

 32 36  0  0  0  0  0  0  0  0999 V2000
   -3.4965   -2.2784    0.0000 C   0  0  0  0  0  0  0  0  0  0  0  0
   -4.9293   -2.7225    0.0000 C   0  0  0  0  0  0  0  0  0  0  0  0
   -5.2611   -4.1853    0.0000 C   0  0  0  0  0  0  0  0  0  0  0  0
   -6.0302   -1.7037    0.0000 C   0  0  0  0  0  0  0  0  0  0  0  0
   -7.4630   -2.1477    0.0000 C   0  0  0  0  0  0  0  0  0  0  0  0
   -5.6984   -0.2409    0.0000 C   0  0  0  0  0  0  0  0  0  0  0  0
   -4.2656    0.2032    0.0000 C   0  0  0  0  0  0  0  0  0  0  0  0
   -3.9338    1.6660    0.0000 C   0  0  0  0  0  0  0  0  0  0  0  0
   -5.0347    2.6848    0.0000 C   0  0  0  0  0  0  0  0  0  0  0  0
   -2.5010    2.1101    0.0000 C   0  0  0  0  0  0  0  0  0  0  0  0
   -2.0181    3.5302    0.0000 C   0  0  0  0  0  0  0  0  0  0  0  0
   -0.5183    3.5098    0.0000 C   0  0  0  0  0  0  0  0  0  0  0  0
   -0.0742    2.0770    0.0000 C   0  0  0  0  0  0  0  0  0  0  0  0
    1.0541    3.0654    0.0000 C   0  0  0  0  0  0  0  0  0  0  0  0
    1.2877    1.4483    0.0000 C   0  0  0  0  0  0  0  0  0  0  0  0
    2.5131    2.3133    0.0000 C   0  0  0  0  0  0  0  0  0  0  0  0
    3.8750    1.6846    0.0000 C   0  0  0  0  0  0  0  0  0  0  0  0
    4.0114    0.1908    0.0000 C   0  0  0  0  0  0  0  0  0  0  0  0
    5.3733   -0.4379    0.0000 C   0  0  0  0  0  0  0  0  0  0  0  0
    6.8681   -0.5629    0.0000 C   0  0  0  0  0  0  0  0  0  0  0  0
    5.7560    1.0125    0.0000 C   0  0  0  0  0  0  0  0  0  0  0  0
    5.5097   -1.9317    0.0000 C   0  0  0  0  0  0  0  0  0  0  0  0
    6.8716   -2.5604    0.0000 O   0  0  0  0  0  0  0  0  0  0  0  0
    4.2843   -2.7967    0.0000 C   0  0  0  0  0  0  0  0  0  0  0  0
    2.9224   -2.1680    0.0000 C   0  0  0  0  0  0  0  0  0  0  0  0
    2.7860   -0.6742    0.0000 C   0  0  0  0  0  0  0  0  0  0  0  0
    1.5606   -1.5393    0.0000 C   0  0  0  0  0  0  0  0  0  0  0  0
    1.4241   -0.0455    0.0000 C   0  0  0  0  0  0  0  0  0  0  0  0
    0.1987   -0.9106    0.0000 C   0  0  0  0  0  0  0  0  0  0  0  0
   -1.1632   -0.2818    0.0000 C   0  0  0  0  0  0  0  0  0  0  0  0
   -1.2996    1.2119    0.0000 C   0  0  0  0  0  0  0  0  0  0  0  0
   -2.6088    0.4797    0.0000 C   0  0  0  0  0  0  0  0  0  0  0  0
  1  2  2  0
  2  3  1  0
  2  4  1  0
  4  5  1  1
  4  6  1  0
  6  7  1  0
  7  8  1  0
  8  9  1  1
  8 10  1  0
 10 11  1  1
 11 12  1  0
 12 13  1  0
 13 14  1  6
 13 15  1  0
 15 16  1  6
 16 17  1  0
 18 17  1  1
 18 19  1  0
 19 20  1  0
 19 21  1  0
 19 22  1  0
 22 23  1  1
 22 24  1  0
 24 25  1  0
 26 25  1  6
 26 27  1  0
 28 27  1  1
 28 29  1  0
 29 30  1  0
 30 31  1  0
 31 32  1  1
 31 10  1  0
 31 13  1  0
 28 15  1  0
 26 18  1  0
 28 26  1  0
M  END
>  <identifier>  (232) 
CNP0333329.1

>  <canonical_smiles>  (232) 
C=C(C)[C@@H](C)CC[C@@H](C)[C@H]1CC[C@@]2(C)[C@@H]3CC[C@H]4C(C)(C)[C@@H](O)CC[C@@]45C[C@@]35CC[C@]12C

>  <standard_inchi>  (232) 
InChI=1S/C31H52O/c1-20(2)21(3)9-10-22(4)23-13-15-29(8)25-12-11-24-27(5,6)26(32)14-16-30(24)19-31(25,30)18-17-28(23,29)7/h21-26,32H,1,9-19H2,2-8H3/t21-,22+,23+,24-,25-,26-,28+,29-,30+,31-/m0/s1

>  <standard_inchi_key>  (232) 
IXHACUTUTOCSJE-HWTFXIFRSA-N

>  <name>  (232) 
Cyclolaudenol

>  <iupac_name>  (232) 
(1~{S},3~{R},6~{S},8~{R},11~{S},12~{S},15~{R},16~{R})-7,7,12,16-tetramethyl-15-[(1~{R},4~{S})-1,4,5-trimethylhex-5-enyl]pentacyclo[9.7.0.0^{1,3}.0^{3,8}.0^{12,16}]octadecan-6-ol

>  <annotation_level>  (232) 
5

>  <total_atom_count>  (232) 
84

>  <heavy_atom_count>  (232) 
32

>  <molecular_weight>  (232) 
440.76

>  <exact_molecular_weight>  (232) 
440.40182

>  <molecular_formula>  (232) 
C31H52O

>  <alogp>  (232) 
8.41

>  <topological_polar_surface_area>  (232) 
20.23

>  <rotatable_bond_count>  (232) 
5

>  <hydrogen_bond_acceptors>  (232) 
1

>  <hydrogen_bond_donors>  (232) 
1

>  <hydrogen_bond_acceptors_lipinski>  (232) 
1

>  <hydrogen_bond_donors_lipinski>  (232) 
1

>  <lipinski_rule_of_five_violations>  (232) 
1

>  <aromatic_rings_count>  (232) 
0

>  <qed_drug_likeliness>  (232) 
0.43

>  <formal_charge>  (232) 
0

>  <fractioncsp3>  (232) 
0.94

>  <number_of_minimal_rings>  (232) 
5

>  <van_der_walls_volume>  (232) 
469.14

>  <contains_sugar>  (232) 
False

>  <contains_ring_sugars>  (232) 
False

>  <contains_linear_sugars>  (232) 
False

>  <murcko_framework>  (232) 
C1CCC23CC43CCC5CCCC5C4CCC2C1

>  <np_likeness>  (232) 
3.25

>  <chemical_class>  (232) 
Steroids and steroid derivatives

>  <chemical_sub_class>  (232) 
Cycloartanols and derivatives

>  <chemical_super_class>  (232) 
Lipids and lipid-like molecules

>  <direct_parent_classification>  (232) 
Cycloartanols and derivatives

>  <np_classifier_pathway>  (232) 
Terpenoids

>  <np_classifier_superclass>  (232) 
Triterpenoids

>  <np_classifier_class>  (232) 
Cycloartane triterpenoids

>  <np_classifier_is_glycoside>  (232) 
False

>  <organisms>  (232) 
Aloe microstigma|Aplidium multiplicatum|Chrozophora prostrata|Papaver somniferum|Tillandsia fasciculata

>  <collections>  (232) 
Australian natural products|BIOFACQUIM|CMAUP (cCollective molecular activities of useful plants)|ChEBI NPs|KNApSaCK|Latin America dataset|NPASS|Phyto4Health|Super Natural II|TCMDB-Taiwan (Traditional Chinese Medicine database)

>  <dois>  (232) 
10.1021/np0100744

>  <synonyms>  (232) 
24-Methylcycloartenol|511-61-5|37A519WW2T|(1S|3R|6S|8R|11S|12S|15R|16R)-15-(2R|5S)-5|6-dimethylhept-6-en-2-yl-7|7|12|16-tetramethylpentacyclo9.7.0.01|3.03|8.012|16octadecan-6-ol|(24S)-24-methylcycloart-25-en-3beta-ol|UNII-37A519WW2T|SCHEMBL679913|9|19-Cyclolanost-25-en-3-ol| 24-methyl-| (3.beta.|24S)-|CHEMBL376381|9|19-Cyclo-9.beta.-lanost-25-en-3.beta.-ol| 24-methyl-| (24S)-|CHEBI:142990|DTXSID501317556|C22175|24(S)-methyl-9beta|19-cyclolanost-25-en-3beta-ol|Q27256667|(3beta|24S)-24-Methyl-9|19-cyclolanost-25-en-3-ol|9|19-CYCLO-9.BETA.-LANOST-25-EN-3.BETA.-OL| 24-METHYL-|Cyclolaudenol

>  <cas>  (232) 
511-61-5

$$$$

     RDKit          2D

 35 39  0  0  0  0  0  0  0  0999 V2000
   -3.7141   -2.5672    0.0000 C   0  0  0  0  0  0  0  0  0  0  0  0
   -5.0488   -3.2517    0.0000 C   0  0  0  0  0  0  0  0  0  0  0  0
   -5.1234   -4.7498    0.0000 C   0  0  0  0  0  0  0  0  0  0  0  0
   -6.3089   -2.4380    0.0000 C   0  0  0  0  0  0  0  0  0  0  0  0
   -7.6436   -3.1225    0.0000 C   0  0  0  0  0  0  0  0  0  0  0  0
   -6.2343   -0.9399    0.0000 C   0  0  0  0  0  0  0  0  0  0  0  0
   -4.8996   -0.2554    0.0000 C   0  0  0  0  0  0  0  0  0  0  0  0
   -4.8250    1.2428    0.0000 C   0  0  0  0  0  0  0  0  0  0  0  0
   -6.0851    2.0564    0.0000 C   0  0  0  0  0  0  0  0  0  0  0  0
   -3.4903    1.9272    0.0000 C   0  0  0  0  0  0  0  0  0  0  0  0
   -3.2595    3.4094    0.0000 C   0  0  0  0  0  0  0  0  0  0  0  0
   -1.7786    3.6479    0.0000 C   0  0  0  0  0  0  0  0  0  0  0  0
   -1.0941    2.3132    0.0000 C   0  0  0  0  0  0  0  0  0  0  0  0
   -0.1532    3.4813    0.0000 C   0  0  0  0  0  0  0  0  0  0  0  0
    0.3558    1.9287    0.0000 C   0  0  0  0  0  0  0  0  0  0  0  0
    1.4137    2.9921    0.0000 C   0  0  0  0  0  0  0  0  0  0  0  0
    2.8636    2.6077    0.0000 C   0  0  0  0  0  0  0  0  0  0  0  0
    3.2556    1.1598    0.0000 C   0  0  0  0  0  0  0  0  0  0  0  0
    4.7055    0.7754    0.0000 C   0  0  0  0  0  0  0  0  0  0  0  0
    6.1994    0.9100    0.0000 C   0  0  0  0  0  0  0  0  0  0  0  0
    4.8323    2.2700    0.0000 C   0  0  0  0  0  0  0  0  0  0  0  0
    5.0975   -0.6725    0.0000 C   0  0  0  0  0  0  0  0  0  0  0  0
    6.5474   -1.0570    0.0000 O   0  0  0  0  0  0  0  0  0  0  0  0
    6.9394   -2.5048    0.0000 C   0  0  0  0  0  0  0  0  0  0  0  0
    8.3893   -2.8893    0.0000 C   0  0  0  0  0  0  0  0  0  0  0  0
    5.8815   -3.5683    0.0000 O   0  0  0  0  0  0  0  0  0  0  0  0
    4.0396   -1.7359    0.0000 C   0  0  0  0  0  0  0  0  0  0  0  0
    2.5897   -1.3515    0.0000 C   0  0  0  0  0  0  0  0  0  0  0  0
    2.1977    0.0964    0.0000 C   0  0  0  0  0  0  0  0  0  0  0  0
    1.1398   -0.9670    0.0000 C   0  0  0  0  0  0  0  0  0  0  0  0
    0.7478    0.4808    0.0000 C   0  0  0  0  0  0  0  0  0  0  0  0
   -0.3101   -0.5826    0.0000 C   0  0  0  0  0  0  0  0  0  0  0  0
   -1.7600   -0.1981    0.0000 C   0  0  0  0  0  0  0  0  0  0  0  0
   -2.1520    1.2497    0.0000 C   0  0  0  0  0  0  0  0  0  0  0  0
   -3.3152    0.3027    0.0000 C   0  0  0  0  0  0  0  0  0  0  0  0
  1  2  2  0
  2  3  1  0
  2  4  1  0
  4  5  1  1
  4  6  1  0
  6  7  1  0
  7  8  1  0
  8  9  1  1
  8 10  1  0
 10 11  1  1
 11 12  1  0
 12 13  1  0
 13 14  1  6
 13 15  1  0
 15 16  1  0
 16 17  1  0
 17 18  1  0
 18 19  1  0
 19 20  1  0
 19 21  1  0
 19 22  1  0
 22 23  1  1
 23 24  1  0
 24 25  1  0
 24 26  2  0
 22 27  1  0
 27 28  1  0
 29 28  1  6
 29 30  1  0
 31 30  1  1
 31 32  1  0
 32 33  1  0
 33 34  1  0
 34 35  1  1
 34 10  1  0
 34 13  1  0
 31 15  1  0
 29 18  1  0
 31 29  1  0
M  END
>  <identifier>  (233) 
CNP0186410.1

>  <canonical_smiles>  (233) 
C=C(C)[C@@H](C)CC[C@@H](C)[C@H]1CC[C@@]2(C)C3CCC4C(C)(C)[C@@H](OC(C)=O)CC[C@@]45C[C@@]35CC[C@]12C

>  <standard_inchi>  (233) 
InChI=1S/C33H54O2/c1-21(2)22(3)10-11-23(4)25-14-16-31(9)27-13-12-26-29(6,7)28(35-24(5)34)15-17-32(26)20-33(27,32)19-18-30(25,31)8/h22-23,25-28H,1,10-20H2,2-9H3/t22-,23+,25+,26?,27?,28-,30+,31-,32+,33-/m0/s1

>  <standard_inchi_key>  (233) 
XANCISIMFMVUPX-UPWRSJHQSA-N

>  <name>  (233) 
nan

>  <iupac_name>  (233) 
[(1~{S},3~{R},6~{S},12~{S},15~{R},16~{R})-7,7,12,16-tetramethyl-15-[(1~{R},4~{S})-1,4,5-trimethylhex-5-enyl]-6-pentacyclo[9.7.0.0^{1,3}.0^{3,8}.0^{12,16}]octadecanyl] acetate

>  <annotation_level>  (233) 
5

>  <total_atom_count>  (233) 
89

>  <heavy_atom_count>  (233) 
35

>  <molecular_weight>  (233) 
482.79

>  <exact_molecular_weight>  (233) 
482.41238

>  <molecular_formula>  (233) 
C33H54O2

>  <alogp>  (233) 
8.99

>  <topological_polar_surface_area>  (233) 
26.30

>  <rotatable_bond_count>  (233) 
6

>  <hydrogen_bond_acceptors>  (233) 
2

>  <hydrogen_bond_donors>  (233) 
0

>  <hydrogen_bond_acceptors_lipinski>  (233) 
2

>  <hydrogen_bond_donors_lipinski>  (233) 
0

>  <lipinski_rule_of_five_violations>  (233) 
1

>  <aromatic_rings_count>  (233) 
0

>  <qed_drug_likeliness>  (233) 
0.28

>  <formal_charge>  (233) 
0

>  <fractioncsp3>  (233) 
0.91

>  <number_of_minimal_rings>  (233) 
5

>  <van_der_walls_volume>  (233) 
505.78

>  <contains_sugar>  (233) 
False

>  <contains_ring_sugars>  (233) 
False

>  <contains_linear_sugars>  (233) 
False

>  <murcko_framework>  (233) 
C1CCC23CC43CCC5CCCC5C4CCC2C1

>  <np_likeness>  (233) 
3.14

>  <chemical_class>  (233) 
Steroids and steroid derivatives

>  <chemical_sub_class>  (233) 
Cycloartanols and derivatives

>  <chemical_super_class>  (233) 
Lipids and lipid-like molecules

>  <direct_parent_classification>  (233) 
Cycloartanols and derivatives

>  <np_classifier_pathway>  (233) 
Terpenoids

>  <np_classifier_superclass>  (233) 
Triterpenoids

>  <np_classifier_class>  (233) 
Cycloartane triterpenoids

>  <np_classifier_is_glycoside>  (233) 
False

>  <organisms>  (233) 
Tillandsia fasciculata

>  <collections>  (233) 
BIOFACQUIM|Latin America dataset

>  <dois>  (233) 
10.1021/np0100744

>  <synonyms>  (233) 
Cyclolaudenyl Acetate

>  <cas>  (233) 
nan

$$$$

     RDKit          2D

 16 17  0  0  0  0  0  0  0  0999 V2000
   -5.4491   -0.3458    0.0000 C   0  0  0  0  0  0  0  0  0  0  0  0
   -4.1708    0.4390    0.0000 C   0  0  0  0  0  0  0  0  0  0  0  0
   -4.2113    1.9385    0.0000 O   0  0  0  0  0  0  0  0  0  0  0  0
   -2.8520   -0.2757    0.0000 C   0  0  0  0  0  0  0  0  0  0  0  0
   -2.8116   -1.7751    0.0000 O   0  0  0  0  0  0  0  0  0  0  0  0
   -1.5737    0.5091    0.0000 C   0  0  0  0  0  0  0  0  0  0  0  0
   -0.2549   -0.2056    0.0000 C   0  0  0  0  0  0  0  0  0  0  0  0
   -0.0579   -1.6926    0.0000 O   0  0  0  0  0  0  0  0  0  0  0  0
    1.4172   -1.9648    0.0000 C   0  0  0  0  0  0  0  0  0  0  0  0
    2.1319   -0.6460    0.0000 C   0  0  0  0  0  0  0  0  0  0  0  0
    3.5902   -0.2947    0.0000 C   0  0  0  0  0  0  0  0  0  0  0  0
    4.6235   -1.3820    0.0000 O   0  0  0  0  0  0  0  0  0  0  0  0
    4.0150    1.1438    0.0000 C   0  0  0  0  0  0  0  0  0  0  0  0
    2.9816    2.2311    0.0000 C   0  0  0  0  0  0  0  0  0  0  0  0
    1.5234    1.8798    0.0000 C   0  0  0  0  0  0  0  0  0  0  0  0
    1.0985    0.4412    0.0000 C   0  0  0  0  0  0  0  0  0  0  0  0
  2  1  1  6
  2  3  1  0
  2  4  1  0
  4  5  1  6
  4  6  1  0
  7  6  1  6
  7  8  1  0
  8  9  1  0
  9 10  1  0
 10 11  2  0
 11 12  1  0
 11 13  1  0
 13 14  2  0
 14 15  1  0
 15 16  2  0
 16  7  1  0
 16 10  1  0
M  END
>  <identifier>  (234) 
CNP0230196.1

>  <canonical_smiles>  (234) 
C[C@H](O)[C@@H](O)C[C@H]1OCC2=C(O)C=CC=C21

>  <standard_inchi>  (234) 
InChI=1S/C12H16O4/c1-7(13)11(15)5-12-8-3-2-4-10(14)9(8)6-16-12/h2-4,7,11-15H,5-6H2,1H3/t7-,11-,12+/m0/s1

>  <standard_inchi_key>  (234) 
VWNBIHJYLBWFKS-CQFDHEJISA-N

>  <name>  (234) 
nan

>  <iupac_name>  (234) 
(2~{S},3~{S})-1-[(1~{R})-4-hydroxy-1,3-dihydroisobenzofuran-1-yl]butane-2,3-diol

>  <annotation_level>  (234) 
5

>  <total_atom_count>  (234) 
32

>  <heavy_atom_count>  (234) 
16

>  <molecular_weight>  (234) 
224.26

>  <exact_molecular_weight>  (234) 
224.10486

>  <molecular_formula>  (234) 
C12H16O4

>  <alogp>  (234) 
1.10

>  <topological_polar_surface_area>  (234) 
69.92

>  <rotatable_bond_count>  (234) 
3

>  <hydrogen_bond_acceptors>  (234) 
4

>  <hydrogen_bond_donors>  (234) 
3

>  <hydrogen_bond_acceptors_lipinski>  (234) 
4

>  <hydrogen_bond_donors_lipinski>  (234) 
3

>  <lipinski_rule_of_five_violations>  (234) 
0

>  <aromatic_rings_count>  (234) 
1

>  <qed_drug_likeliness>  (234) 
0.72

>  <formal_charge>  (234) 
0

>  <fractioncsp3>  (234) 
0.50

>  <number_of_minimal_rings>  (234) 
2

>  <van_der_walls_volume>  (234) 
205.47

>  <contains_sugar>  (234) 
False

>  <contains_ring_sugars>  (234) 
False

>  <contains_linear_sugars>  (234) 
False

>  <murcko_framework>  (234) 
O1Cc2ccccc2C1

>  <np_likeness>  (234) 
1.98

>  <chemical_class>  (234) 
Isocoumarans

>  <chemical_sub_class>  (234) 
Isocoumarans

>  <chemical_super_class>  (234) 
Organoheterocyclic compounds

>  <direct_parent_classification>  (234) 
Isocoumarans

>  <np_classifier_pathway>  (234) 
Polyketides

>  <np_classifier_superclass>  (234) 
Aromatic polyketides

>  <np_classifier_class>  (234) 
Simple aromatic polyketides

>  <np_classifier_is_glycoside>  (234) 
False

>  <organisms>  (234) 
Malbranchea flavorosea

>  <collections>  (234) 
BIOFACQUIM|Latin America dataset

>  <dois>  (234) 
10.1021/acs.jnatprod.6b00977

>  <synonyms>  (234) 
Xylarinol B

>  <cas>  (234) 
nan

$$$$

     RDKit          2D

 26 28  0  0  0  0  0  0  0  0999 V2000
   -2.1216   -4.9100    0.0000 C   0  0  0  0  0  0  0  0  0  0  0  0
   -0.9471   -3.9770    0.0000 C   0  0  0  0  0  0  0  0  0  0  0  0
   -1.1679   -2.4933    0.0000 C   0  0  0  0  0  0  0  0  0  0  0  0
   -2.5632   -1.9427    0.0000 O   0  0  0  0  0  0  0  0  0  0  0  0
    0.0065   -1.5602    0.0000 O   0  0  0  0  0  0  0  0  0  0  0  0
   -0.2143   -0.0766    0.0000 C   0  0  0  0  0  0  0  0  0  0  0  0
    0.9602    0.8565    0.0000 C   0  0  0  0  0  0  0  0  0  0  0  0
    0.7394    2.3401    0.0000 C   0  0  0  0  0  0  0  0  0  0  0  0
    1.9138    3.2732    0.0000 C   0  0  0  0  0  0  0  0  0  0  0  0
    3.3091    2.7226    0.0000 C   0  0  0  0  0  0  0  0  0  0  0  0
    3.5300    1.2390    0.0000 C   0  0  0  0  0  0  0  0  0  0  0  0
    2.3555    0.3059    0.0000 C   0  0  0  0  0  0  0  0  0  0  0  0
    2.5763   -1.1778    0.0000 O   0  0  0  0  0  0  0  0  0  0  0  0
    3.9716   -1.7284    0.0000 C   0  0  0  0  0  0  0  0  0  0  0  0
    4.1924   -3.2120    0.0000 O   0  0  0  0  0  0  0  0  0  0  0  0
    5.1461   -0.7953    0.0000 C   0  0  0  0  0  0  0  0  0  0  0  0
    4.9252    0.6884    0.0000 C   0  0  0  0  0  0  0  0  0  0  0  0
   -0.6559    2.8907    0.0000 O   0  0  0  0  0  0  0  0  0  0  0  0
   -1.8304    1.9577    0.0000 C   0  0  0  0  0  0  0  0  0  0  0  0
   -2.5454    3.2763    0.0000 C   0  0  0  0  0  0  0  0  0  0  0  0
   -3.2532    1.4826    0.0000 C   0  0  0  0  0  0  0  0  0  0  0  0
   -1.6096    0.4740    0.0000 C   0  0  0  0  0  0  0  0  0  0  0  0
   -2.7841   -0.4590    0.0000 O   0  0  0  0  0  0  0  0  0  0  0  0
   -4.1794    0.0915    0.0000 C   0  0  0  0  0  0  0  0  0  0  0  0
   -5.3538   -0.8415    0.0000 C   0  0  0  0  0  0  0  0  0  0  0  0
   -4.4002    1.5752    0.0000 O   0  0  0  0  0  0  0  0  0  0  0  0
  1  2  1  0
  2  3  1  0
  3  4  2  0
  3  5  1  0
  6  5  1  1
  6  7  1  0
  7  8  2  0
  8  9  1  0
  9 10  2  0
 10 11  1  0
 11 12  2  0
 12 13  1  0
 13 14  1  0
 14 15  2  0
 14 16  1  0
 16 17  2  0
  8 18  1  0
 18 19  1  0
 19 20  1  0
 19 21  1  0
 19 22  1  0
 22 23  1  1
 23 24  1  0
 24 25  1  0
 24 26  2  0
 22  6  1  0
 12  7  1  0
 17 11  1  0
M  END
>  <identifier>  (235) 
CNP0139512.1

>  <canonical_smiles>  (235) 
CCC(=O)O[C@@H]1C2=C(C=CC3=C2OC(=O)C=C3)OC(C)(C)[C@@H]1OC(C)=O

>  <standard_inchi>  (235) 
InChI=1S/C19H20O7/c1-5-13(21)24-17-15-12(26-19(3,4)18(17)23-10(2)20)8-6-11-7-9-14(22)25-16(11)15/h6-9,17-18H,5H2,1-4H3/t17-,18-/m1/s1

>  <standard_inchi_key>  (235) 
IGMRYMQUDCGCFD-QZTJIDSGSA-N

>  <name>  (235) 
Anti-inflammatory agent 57

>  <iupac_name>  (235) 
[(9~{R},10~{R})-9-acetoxy-8,8-dimethyl-2-oxo-9,10-dihydropyrano[2,3-f]chromen-10-yl] propanoate

>  <annotation_level>  (235) 
5

>  <total_atom_count>  (235) 
46

>  <heavy_atom_count>  (235) 
26

>  <molecular_weight>  (235) 
360.36

>  <exact_molecular_weight>  (235) 
360.1209

>  <molecular_formula>  (235) 
C19H20O7

>  <alogp>  (235) 
2.89

>  <topological_polar_surface_area>  (235) 
92.04

>  <rotatable_bond_count>  (235) 
3

>  <hydrogen_bond_acceptors>  (235) 
7

>  <hydrogen_bond_donors>  (235) 
0

>  <hydrogen_bond_acceptors_lipinski>  (235) 
7

>  <hydrogen_bond_donors_lipinski>  (235) 
0

>  <lipinski_rule_of_five_violations>  (235) 
0

>  <aromatic_rings_count>  (235) 
2

>  <qed_drug_likeliness>  (235) 
0.61

>  <formal_charge>  (235) 
0

>  <fractioncsp3>  (235) 
0.42

>  <number_of_minimal_rings>  (235) 
3

>  <van_der_walls_volume>  (235) 
313.87

>  <contains_sugar>  (235) 
False

>  <contains_ring_sugars>  (235) 
False

>  <contains_linear_sugars>  (235) 
False

>  <murcko_framework>  (235) 
O1c2ccc3C=CCOc3c2CCC1

>  <np_likeness>  (235) 
2.22

>  <chemical_class>  (235) 
Coumarins and derivatives

>  <chemical_sub_class>  (235) 
Pyranocoumarins

>  <chemical_super_class>  (235) 
Phenylpropanoids and polyketides

>  <direct_parent_classification>  (235) 
Angular pyranocoumarins

>  <np_classifier_pathway>  (235) 
Shikimates and Phenylpropanoids

>  <np_classifier_superclass>  (235) 
Coumarins

>  <np_classifier_class>  (235) 
Pyranocoumarins

>  <np_classifier_is_glycoside>  (235) 
False

>  <organisms>  (235) 
Prionosciadium watsoni

>  <collections>  (235) 
BIOFACQUIM|CMAUP (cCollective molecular activities of useful plants)|Latin America dataset|NPASS|Super Natural II

>  <dois>  (235) 
10.1021/np010448t

>  <synonyms>  (235) 
CHEMBL464293|HY-N12101|CS-0891686|Propionic acid (9R 10R)-9-acetoxy-8 8-dimethyl-9 10-dihydro-2H 8H-benzo1 2-b:3 4-b'dipyran-2-one-10-yl ester

>  <cas>  (235) 
nan

$$$$

     RDKit          2D

 24 26  0  0  0  0  0  0  0  0999 V2000
   -3.4910   -4.1453    0.0000 C   0  0  0  0  0  0  0  0  0  0  0  0
   -2.1728   -3.4296    0.0000 C   0  0  0  0  0  0  0  0  0  0  0  0
   -0.8939   -4.2134    0.0000 C   0  0  0  0  0  0  0  0  0  0  0  0
   -2.1335   -1.9301    0.0000 C   0  0  0  0  0  0  0  0  0  0  0  0
   -3.4124   -1.1463    0.0000 O   0  0  0  0  0  0  0  0  0  0  0  0
   -0.8152   -1.2144    0.0000 O   0  0  0  0  0  0  0  0  0  0  0  0
   -0.7759    0.2851    0.0000 C   0  0  0  0  0  0  0  0  0  0  0  0
    0.5424    1.0007    0.0000 C   0  0  0  0  0  0  0  0  0  0  0  0
    0.5817    2.5002    0.0000 C   0  0  0  0  0  0  0  0  0  0  0  0
    1.8999    3.2159    0.0000 C   0  0  0  0  0  0  0  0  0  0  0  0
    3.1789    2.4321    0.0000 C   0  0  0  0  0  0  0  0  0  0  0  0
    3.1395    0.9326    0.0000 C   0  0  0  0  0  0  0  0  0  0  0  0
    1.8213    0.2169    0.0000 C   0  0  0  0  0  0  0  0  0  0  0  0
    1.7820   -1.2825    0.0000 O   0  0  0  0  0  0  0  0  0  0  0  0
    3.0609   -2.0663    0.0000 C   0  0  0  0  0  0  0  0  0  0  0  0
    3.0216   -3.5658    0.0000 O   0  0  0  0  0  0  0  0  0  0  0  0
    4.3791   -1.3506    0.0000 C   0  0  0  0  0  0  0  0  0  0  0  0
    4.4185    0.1488    0.0000 C   0  0  0  0  0  0  0  0  0  0  0  0
   -0.6972    3.2840    0.0000 O   0  0  0  0  0  0  0  0  0  0  0  0
   -2.0155    2.5683    0.0000 C   0  0  0  0  0  0  0  0  0  0  0  0
   -2.4914    3.9908    0.0000 C   0  0  0  0  0  0  0  0  0  0  0  0
   -3.4990    2.3467    0.0000 C   0  0  0  0  0  0  0  0  0  0  0  0
   -2.0548    1.0689    0.0000 C   0  0  0  0  0  0  0  0  0  0  0  0
   -3.3731    0.3532    0.0000 O   0  0  0  0  0  0  0  0  0  0  0  0
  1  2  1  0
  2  3  1  0
  2  4  1  0
  4  5  2  0
  4  6  1  0
  7  6  1  1
  7  8  1  0
  8  9  2  0
  9 10  1  0
 10 11  2  0
 11 12  1  0
 12 13  2  0
 13 14  1  0
 14 15  1  0
 15 16  2  0
 15 17  1  0
 17 18  2  0
  9 19  1  0
 19 20  1  0
 20 21  1  0
 20 22  1  0
 20 23  1  0
 23 24  1  1
 23  7  1  0
 13  8  1  0
 18 12  1  0
M  END
>  <identifier>  (236) 
CNP0244045.1

>  <canonical_smiles>  (236) 
CC(C)C(=O)O[C@@H]1C2=C(C=CC3=C2OC(=O)C=C3)OC(C)(C)[C@@H]1O

>  <standard_inchi>  (236) 
InChI=1S/C18H20O6/c1-9(2)17(21)23-15-13-11(24-18(3,4)16(15)20)7-5-10-6-8-12(19)22-14(10)13/h5-9,15-16,20H,1-4H3/t15-,16-/m1/s1

>  <standard_inchi_key>  (236) 
JHCPPFWOQPOFRF-HZPDHXFCSA-N

>  <name>  (236) 
[(9R,10R)-9-hydroxy-8,8-dimethyl-2-oxo-9,10-dihydropyrano[2,3-f]chromen-10-yl] 2-methylpropanoate

>  <iupac_name>  (236) 
[(9~{R},10~{R})-9-hydroxy-8,8-dimethyl-2-oxo-9,10-dihydropyrano[2,3-f]chromen-10-yl] 2-methylpropanoate

>  <annotation_level>  (236) 
5

>  <total_atom_count>  (236) 
44

>  <heavy_atom_count>  (236) 
24

>  <molecular_weight>  (236) 
332.35

>  <exact_molecular_weight>  (236) 
332.12599

>  <molecular_formula>  (236) 
C18H20O6

>  <alogp>  (236) 
2.57

>  <topological_polar_surface_area>  (236) 
85.97

>  <rotatable_bond_count>  (236) 
2

>  <hydrogen_bond_acceptors>  (236) 
6

>  <hydrogen_bond_donors>  (236) 
1

>  <hydrogen_bond_acceptors_lipinski>  (236) 
6

>  <hydrogen_bond_donors_lipinski>  (236) 
1

>  <lipinski_rule_of_five_violations>  (236) 
0

>  <aromatic_rings_count>  (236) 
2

>  <qed_drug_likeliness>  (236) 
0.67

>  <formal_charge>  (236) 
0

>  <fractioncsp3>  (236) 
0.44

>  <number_of_minimal_rings>  (236) 
3

>  <van_der_walls_volume>  (236) 
293.46

>  <contains_sugar>  (236) 
False

>  <contains_ring_sugars>  (236) 
False

>  <contains_linear_sugars>  (236) 
False

>  <murcko_framework>  (236) 
O1c2ccc3C=CCOc3c2CCC1

>  <np_likeness>  (236) 
2.13

>  <chemical_class>  (236) 
Coumarins and derivatives

>  <chemical_sub_class>  (236) 
Pyranocoumarins

>  <chemical_super_class>  (236) 
Phenylpropanoids and polyketides

>  <direct_parent_classification>  (236) 
Angular pyranocoumarins

>  <np_classifier_pathway>  (236) 
Shikimates and Phenylpropanoids

>  <np_classifier_superclass>  (236) 
Coumarins

>  <np_classifier_class>  (236) 
Pyranocoumarins

>  <np_classifier_is_glycoside>  (236) 
False

>  <organisms>  (236) 
Prionosciadium watsoni

>  <collections>  (236) 
BIOFACQUIM|CMAUP (cCollective molecular activities of useful plants)|Latin America dataset|NPASS|Super Natural II

>  <dois>  (236) 
10.1021/np010448t

>  <synonyms>  (236) 
CHEMBL518224|Isobutyric acid (9R 10R)-9-hydroxy-8 8-dimethyl-9 10-dihydro-2H 8H-benzo1 2-b:3 4-b'-dipyran-2-one-10-yl ester

>  <cas>  (236) 
nan

$$$$

     RDKit          2D

 25 27  0  0  0  0  0  0  0  0999 V2000
   -5.4296   -1.3791    0.0000 C   0  0  0  0  0  0  0  0  0  0  0  0
   -4.5149   -2.5679    0.0000 C   0  0  0  0  0  0  0  0  0  0  0  0
   -3.0280   -2.3702    0.0000 C   0  0  0  0  0  0  0  0  0  0  0  0
   -2.1132   -3.5590    0.0000 C   0  0  0  0  0  0  0  0  0  0  0  0
   -2.4558   -0.9836    0.0000 C   0  0  0  0  0  0  0  0  0  0  0  0
   -3.3705    0.2052    0.0000 O   0  0  0  0  0  0  0  0  0  0  0  0
   -0.9689   -0.7858    0.0000 O   0  0  0  0  0  0  0  0  0  0  0  0
   -0.3967    0.6008    0.0000 C   0  0  0  0  0  0  0  0  0  0  0  0
    1.0902    0.7986    0.0000 C   0  0  0  0  0  0  0  0  0  0  0  0
    1.6624    2.1852    0.0000 C   0  0  0  0  0  0  0  0  0  0  0  0
    3.1493    2.3829    0.0000 C   0  0  0  0  0  0  0  0  0  0  0  0
    4.0640    1.1941    0.0000 C   0  0  0  0  0  0  0  0  0  0  0  0
    3.4918   -0.1925    0.0000 C   0  0  0  0  0  0  0  0  0  0  0  0
    2.0049   -0.3902    0.0000 C   0  0  0  0  0  0  0  0  0  0  0  0
    1.4327   -1.7768    0.0000 O   0  0  0  0  0  0  0  0  0  0  0  0
    2.3475   -2.9656    0.0000 C   0  0  0  0  0  0  0  0  0  0  0  0
    1.7753   -4.3522    0.0000 O   0  0  0  0  0  0  0  0  0  0  0  0
    3.8344   -2.7679    0.0000 C   0  0  0  0  0  0  0  0  0  0  0  0
    4.4066   -1.3813    0.0000 C   0  0  0  0  0  0  0  0  0  0  0  0
    0.7476    3.3740    0.0000 O   0  0  0  0  0  0  0  0  0  0  0  0
   -0.7393    3.1762    0.0000 C   0  0  0  0  0  0  0  0  0  0  0  0
   -0.6758    4.6748    0.0000 C   0  0  0  0  0  0  0  0  0  0  0  0
   -2.2041    3.4989    0.0000 C   0  0  0  0  0  0  0  0  0  0  0  0
   -1.3114    1.7896    0.0000 C   0  0  0  0  0  0  0  0  0  0  0  0
   -2.7984    1.5918    0.0000 O   0  0  0  0  0  0  0  0  0  0  0  0
  1  2  1  0
  2  3  2  0
  3  4  1  0
  3  5  1  0
  5  6  2  0
  5  7  1  0
  8  7  1  1
  8  9  1  0
  9 10  2  0
 10 11  1  0
 11 12  2  0
 12 13  1  0
 13 14  2  0
 14 15  1  0
 15 16  1  0
 16 17  2  0
 16 18  1  0
 18 19  2  0
 10 20  1  0
 20 21  1  0
 21 22  1  0
 21 23  1  0
 21 24  1  0
 24 25  1  1
 24  8  1  0
 14  9  1  0
 19 13  1  0
M  END
>  <identifier>  (237) 
CNP0212806.1

>  <canonical_smiles>  (237) 
C/C=C(/C)C(=O)O[C@@H]1C2=C(C=CC3=C2OC(=O)C=C3)OC(C)(C)[C@@H]1O

>  <standard_inchi>  (237) 
InChI=1S/C19H20O6/c1-5-10(2)18(22)24-16-14-12(25-19(3,4)17(16)21)8-6-11-7-9-13(20)23-15(11)14/h5-9,16-17,21H,1-4H3/b10-5-/t16-,17-/m1/s1

>  <standard_inchi_key>  (237) 
QPLSCFLMIOADPA-RQJZHBNNSA-N

>  <name>  (237) 
Qianhucoumarin A

>  <iupac_name>  (237) 
[(9~{R},10~{R})-9-hydroxy-8,8-dimethyl-2-oxo-9,10-dihydropyrano[2,3-f]chromen-10-yl] (~{Z})-2-methylbut-2-enoate

>  <annotation_level>  (237) 
5

>  <total_atom_count>  (237) 
45

>  <heavy_atom_count>  (237) 
25

>  <molecular_weight>  (237) 
344.36

>  <exact_molecular_weight>  (237) 
344.12599

>  <molecular_formula>  (237) 
C19H20O6

>  <alogp>  (237) 
2.88

>  <topological_polar_surface_area>  (237) 
85.97

>  <rotatable_bond_count>  (237) 
2

>  <hydrogen_bond_acceptors>  (237) 
6

>  <hydrogen_bond_donors>  (237) 
1

>  <hydrogen_bond_acceptors_lipinski>  (237) 
6

>  <hydrogen_bond_donors_lipinski>  (237) 
1

>  <lipinski_rule_of_five_violations>  (237) 
0

>  <aromatic_rings_count>  (237) 
2

>  <qed_drug_likeliness>  (237) 
0.51

>  <formal_charge>  (237) 
0

>  <fractioncsp3>  (237) 
0.37

>  <number_of_minimal_rings>  (237) 
3

>  <van_der_walls_volume>  (237) 
305.02

>  <contains_sugar>  (237) 
False

>  <contains_ring_sugars>  (237) 
False

>  <contains_linear_sugars>  (237) 
False

>  <murcko_framework>  (237) 
O1c2ccc3C=CCOc3c2CCC1

>  <np_likeness>  (237) 
2.48

>  <chemical_class>  (237) 
Coumarins and derivatives

>  <chemical_sub_class>  (237) 
Pyranocoumarins

>  <chemical_super_class>  (237) 
Phenylpropanoids and polyketides

>  <direct_parent_classification>  (237) 
Angular pyranocoumarins

>  <np_classifier_pathway>  (237) 
Shikimates and Phenylpropanoids

>  <np_classifier_superclass>  (237) 
Coumarins

>  <np_classifier_class>  (237) 
Pyranocoumarins

>  <np_classifier_is_glycoside>  (237) 
False

>  <organisms>  (237) 
Agathosma abrupta|Amphidinium corpulentum|Angelica decursiva|Cotoneaster veitchii|Dysidea frondosa|Gomphidius glutinosus|Hyaena hyaena|Ircinia campana|Levisticum officinale|Peucedanum praeruptorum|Prionosciadium watsoni|Streptomyces uncialis|Trichoderma citrinoviride

>  <collections>  (237) 
BIOFACQUIM|CMAUP (cCollective molecular activities of useful plants)|Latin America dataset|NPASS|Super Natural II|TCMDB-Taiwan (Traditional Chinese Medicine database)|ZINC NP

>  <dois>  (237) 
10.1021/np010448t

>  <synonyms>  (237) 
(9R|10R)-9-hydroxy-8|8-dimethyl-2-oxo-9|10-dihydropyrano2|3-fchromen-10-yl (Z)-2-methylbut-2-enoate|150135-35-6|FS-7922|Quianhucoumarin A

>  <cas>  (237) 
150135-35-6

$$$$

     RDKit          2D

 25 27  0  0  0  0  0  0  0  0999 V2000
   -6.5118    0.4505    0.0000 C   0  0  0  0  0  0  0  0  0  0  0  0
   -6.2304   -1.0228    0.0000 C   0  0  0  0  0  0  0  0  0  0  0  0
   -4.8137   -1.5158    0.0000 C   0  0  0  0  0  0  0  0  0  0  0  0
   -4.5323   -2.9892    0.0000 C   0  0  0  0  0  0  0  0  0  0  0  0
   -3.6784   -0.5355    0.0000 C   0  0  0  0  0  0  0  0  0  0  0  0
   -3.9598    0.9379    0.0000 O   0  0  0  0  0  0  0  0  0  0  0  0
   -2.2618   -1.0285    0.0000 O   0  0  0  0  0  0  0  0  0  0  0  0
   -1.1265   -0.0481    0.0000 C   0  0  0  0  0  0  0  0  0  0  0  0
    0.2902   -0.5411    0.0000 C   0  0  0  0  0  0  0  0  0  0  0  0
    0.5716   -2.0145    0.0000 O   0  0  0  0  0  0  0  0  0  0  0  0
    1.4255    0.4392    0.0000 C   0  0  0  0  0  0  0  0  0  0  0  0
    1.1441    1.9126    0.0000 C   0  0  0  0  0  0  0  0  0  0  0  0
    2.2794    2.8930    0.0000 C   0  0  0  0  0  0  0  0  0  0  0  0
    3.6961    2.4000    0.0000 C   0  0  0  0  0  0  0  0  0  0  0  0
    3.9774    0.9266    0.0000 C   0  0  0  0  0  0  0  0  0  0  0  0
    2.8421   -0.0538    0.0000 C   0  0  0  0  0  0  0  0  0  0  0  0
    3.1235   -1.5271    0.0000 O   0  0  0  0  0  0  0  0  0  0  0  0
    4.5402   -2.0202    0.0000 C   0  0  0  0  0  0  0  0  0  0  0  0
    4.8216   -3.4935    0.0000 O   0  0  0  0  0  0  0  0  0  0  0  0
    5.6755   -1.0398    0.0000 C   0  0  0  0  0  0  0  0  0  0  0  0
    5.3941    0.4336    0.0000 C   0  0  0  0  0  0  0  0  0  0  0  0
   -0.2726    2.4056    0.0000 O   0  0  0  0  0  0  0  0  0  0  0  0
   -1.4079    1.4252    0.0000 C   0  0  0  0  0  0  0  0  0  0  0  0
   -2.1762    2.7135    0.0000 C   0  0  0  0  0  0  0  0  0  0  0  0
   -2.8100    0.8923    0.0000 C   0  0  0  0  0  0  0  0  0  0  0  0
  1  2  1  0
  2  3  2  0
  3  4  1  0
  3  5  1  0
  5  6  2  0
  5  7  1  0
  8  7  1  1
  8  9  1  0
  9 10  1  1
  9 11  1  0
 11 12  2  0
 12 13  1  0
 13 14  2  0
 14 15  1  0
 15 16  2  0
 16 17  1  0
 17 18  1  0
 18 19  2  0
 18 20  1  0
 20 21  2  0
 12 22  1  0
 22 23  1  0
 23 24  1  0
 23 25  1  0
 23  8  1  0
 16 11  1  0
 21 15  1  0
M  END
>  <identifier>  (238) 
CNP0192865.1

>  <canonical_smiles>  (238) 
C/C=C(/C)C(=O)O[C@@H]1[C@H](O)C2=C(C=CC3=C2OC(=O)C=C3)OC1(C)C

>  <standard_inchi>  (238) 
InChI=1S/C19H20O6/c1-5-10(2)18(22)24-17-15(21)14-12(25-19(17,3)4)8-6-11-7-9-13(20)23-16(11)14/h5-9,15,17,21H,1-4H3/b10-5-/t15-,17-/m1/s1

>  <standard_inchi_key>  (238) 
KJWFOHVSTFGWGZ-YCDQCDSPSA-N

>  <name>  (238) 
[(9R,10R)-10-hydroxy-8,8-dimethyl-2-oxo-9,10-dihydropyrano[2,3-f]chromen-9-yl] (Z)-2-methylbut-2-enoate

>  <iupac_name>  (238) 
[(9~{R},10~{R})-10-hydroxy-8,8-dimethyl-2-oxo-9,10-dihydropyrano[2,3-f]chromen-9-yl] (~{Z})-2-methylbut-2-enoate

>  <annotation_level>  (238) 
5

>  <total_atom_count>  (238) 
45

>  <heavy_atom_count>  (238) 
25

>  <molecular_weight>  (238) 
344.36

>  <exact_molecular_weight>  (238) 
344.12599

>  <molecular_formula>  (238) 
C19H20O6

>  <alogp>  (238) 
2.88

>  <topological_polar_surface_area>  (238) 
85.97

>  <rotatable_bond_count>  (238) 
2

>  <hydrogen_bond_acceptors>  (238) 
6

>  <hydrogen_bond_donors>  (238) 
1

>  <hydrogen_bond_acceptors_lipinski>  (238) 
6

>  <hydrogen_bond_donors_lipinski>  (238) 
1

>  <lipinski_rule_of_five_violations>  (238) 
0

>  <aromatic_rings_count>  (238) 
2

>  <qed_drug_likeliness>  (238) 
0.51

>  <formal_charge>  (238) 
0

>  <fractioncsp3>  (238) 
0.37

>  <number_of_minimal_rings>  (238) 
3

>  <van_der_walls_volume>  (238) 
304.49

>  <contains_sugar>  (238) 
False

>  <contains_ring_sugars>  (238) 
False

>  <contains_linear_sugars>  (238) 
False

>  <murcko_framework>  (238) 
O1c2ccc3C=CCOc3c2CCC1

>  <np_likeness>  (238) 
2.64

>  <chemical_class>  (238) 
Coumarins and derivatives

>  <chemical_sub_class>  (238) 
Pyranocoumarins

>  <chemical_super_class>  (238) 
Phenylpropanoids and polyketides

>  <direct_parent_classification>  (238) 
Angular pyranocoumarins

>  <np_classifier_pathway>  (238) 
Shikimates and Phenylpropanoids

>  <np_classifier_superclass>  (238) 
Coumarins

>  <np_classifier_class>  (238) 
Pyranocoumarins

>  <np_classifier_is_glycoside>  (238) 
False

>  <organisms>  (238) 
Agathosma abrupta|Amphidinium corpulentum|Cotoneaster veitchii|Dysidea frondosa|Gomphidius glutinosus|Hyaena hyaena|Ircinia campana|Levisticum officinale|Prionosciadium watsoni|Streptomyces uncialis|Trichoderma citrinoviride

>  <collections>  (238) 
BIOFACQUIM|CMAUP (cCollective molecular activities of useful plants)|Latin America dataset|NPASS|Phyto4Health|Super Natural II|TCMDB-Taiwan (Traditional Chinese Medicine database)|ZINC NP

>  <dois>  (238) 
10.1021/np010448t

>  <synonyms>  (238) 
CHEMBL463449|2-methylbut-(2Z)-enoic acid (9R 10R)-10-hydroxy-8 8-dimethyl-9 10-dihydro-2H 8H-benzo1 2-b:3 4-b'dipyran-2-one-9-yl ester

>  <cas>  (238) 
nan

$$$$

     RDKit          2D

 27 29  0  0  0  0  0  0  0  0999 V2000
   -5.3550   -0.7871    0.0000 C   0  0  0  0  0  0  0  0  0  0  0  0
   -4.2005    0.1706    0.0000 C   0  0  0  0  0  0  0  0  0  0  0  0
   -4.4526    1.6492    0.0000 O   0  0  0  0  0  0  0  0  0  0  0  0
   -2.7939   -0.3504    0.0000 O   0  0  0  0  0  0  0  0  0  0  0  0
   -1.6394    0.6072    0.0000 C   0  0  0  0  0  0  0  0  0  0  0  0
   -0.2328    0.0862    0.0000 C   0  0  0  0  0  0  0  0  0  0  0  0
    0.0193   -1.3924    0.0000 O   0  0  0  0  0  0  0  0  0  0  0  0
   -1.1352   -2.3501    0.0000 C   0  0  0  0  0  0  0  0  0  0  0  0
   -2.5418   -1.8291    0.0000 O   0  0  0  0  0  0  0  0  0  0  0  0
   -0.8831   -3.8288    0.0000 C   0  0  0  0  0  0  0  0  0  0  0  0
   -2.0376   -4.7864    0.0000 C   0  0  0  0  0  0  0  0  0  0  0  0
    0.5236   -4.3498    0.0000 C   0  0  0  0  0  0  0  0  0  0  0  0
    0.9217    1.0439    0.0000 C   0  0  0  0  0  0  0  0  0  0  0  0
    0.6696    2.5225    0.0000 C   0  0  0  0  0  0  0  0  0  0  0  0
    1.8241    3.4802    0.0000 C   0  0  0  0  0  0  0  0  0  0  0  0
    3.2308    2.9592    0.0000 C   0  0  0  0  0  0  0  0  0  0  0  0
    3.4829    1.4805    0.0000 C   0  0  0  0  0  0  0  0  0  0  0  0
    2.3284    0.5229    0.0000 C   0  0  0  0  0  0  0  0  0  0  0  0
    2.5805   -0.9558    0.0000 O   0  0  0  0  0  0  0  0  0  0  0  0
    3.9871   -1.4768    0.0000 C   0  0  0  0  0  0  0  0  0  0  0  0
    4.2392   -2.9554    0.0000 O   0  0  0  0  0  0  0  0  0  0  0  0
    5.1416   -0.5191    0.0000 C   0  0  0  0  0  0  0  0  0  0  0  0
    4.8895    0.9595    0.0000 C   0  0  0  0  0  0  0  0  0  0  0  0
   -0.7370    3.0435    0.0000 O   0  0  0  0  0  0  0  0  0  0  0  0
   -1.8915    2.0859    0.0000 C   0  0  0  0  0  0  0  0  0  0  0  0
   -2.6341    3.3891    0.0000 C   0  0  0  0  0  0  0  0  0  0  0  0
   -3.3039    1.5808    0.0000 C   0  0  0  0  0  0  0  0  0  0  0  0
  1  2  1  0
  2  3  2  0
  2  4  1  0
  5  4  1  1
  5  6  1  0
  6  7  1  1
  7  8  1  0
  8  9  2  0
  8 10  1  0
 10 11  1  0
 10 12  1  0
  6 13  1  0
 13 14  2  0
 14 15  1  0
 15 16  2  0
 16 17  1  0
 17 18  2  0
 18 19  1  0
 19 20  1  0
 20 21  2  0
 20 22  1  0
 22 23  2  0
 14 24  1  0
 24 25  1  0
 25 26  1  0
 25 27  1  0
 25  5  1  0
 18 13  1  0
 23 17  1  0
M  END
>  <identifier>  (239) 
CNP0200284.1

>  <canonical_smiles>  (239) 
CC(=O)O[C@@H]1[C@H](OC(=O)C(C)C)C2=C(C=CC3=C2OC(=O)C=C3)OC1(C)C

>  <standard_inchi>  (239) 
InChI=1S/C20H22O7/c1-10(2)19(23)26-17-15-13(27-20(4,5)18(17)24-11(3)21)8-6-12-7-9-14(22)25-16(12)15/h6-10,17-18H,1-5H3/t17-,18-/m1/s1

>  <standard_inchi_key>  (239) 
BUTUNJHEBGRWGK-QZTJIDSGSA-N

>  <name>  (239) 
Hyuganin D

>  <iupac_name>  (239) 
[(9~{R},10~{R})-9-acetoxy-8,8-dimethyl-2-oxo-9,10-dihydropyrano[2,3-f]chromen-10-yl] 2-methylpropanoate

>  <annotation_level>  (239) 
5

>  <total_atom_count>  (239) 
49

>  <heavy_atom_count>  (239) 
27

>  <molecular_weight>  (239) 
374.39

>  <exact_molecular_weight>  (239) 
374.13655

>  <molecular_formula>  (239) 
C20H22O7

>  <alogp>  (239) 
3.14

>  <topological_polar_surface_area>  (239) 
92.04

>  <rotatable_bond_count>  (239) 
3

>  <hydrogen_bond_acceptors>  (239) 
7

>  <hydrogen_bond_donors>  (239) 
0

>  <hydrogen_bond_acceptors_lipinski>  (239) 
7

>  <hydrogen_bond_donors_lipinski>  (239) 
0

>  <lipinski_rule_of_five_violations>  (239) 
0

>  <aromatic_rings_count>  (239) 
2

>  <qed_drug_likeliness>  (239) 
0.60

>  <formal_charge>  (239) 
0

>  <fractioncsp3>  (239) 
0.45

>  <number_of_minimal_rings>  (239) 
3

>  <van_der_walls_volume>  (239) 
330.54

>  <contains_sugar>  (239) 
False

>  <contains_ring_sugars>  (239) 
False

>  <contains_linear_sugars>  (239) 
False

>  <murcko_framework>  (239) 
O1c2ccc3C=CCOc3c2CCC1

>  <np_likeness>  (239) 
2.24

>  <chemical_class>  (239) 
Coumarins and derivatives

>  <chemical_sub_class>  (239) 
Pyranocoumarins

>  <chemical_super_class>  (239) 
Phenylpropanoids and polyketides

>  <direct_parent_classification>  (239) 
Angular pyranocoumarins

>  <np_classifier_pathway>  (239) 
Shikimates and Phenylpropanoids

>  <np_classifier_superclass>  (239) 
Coumarins

>  <np_classifier_class>  (239) 
Pyranocoumarins

>  <np_classifier_is_glycoside>  (239) 
False

>  <organisms>  (239) 
Agathosma abrupta|Amphidinium corpulentum|Angelica decursiva|Angelica furcijuga|Cotoneaster veitchii|Dysidea frondosa|Gomphidius glutinosus|Hyaena hyaena|Ircinia campana|Levisticum officinale|Peucedanum praeruptorum|Prionosciadium watsoni|Streptomyces uncialis|Trichoderma citrinoviride

>  <collections>  (239) 
BIOFACQUIM|CMAUP (cCollective molecular activities of useful plants)|KNApSaCK|Latin America dataset|NPASS|Phyto4Health|Super Natural II

>  <dois>  (239) 
10.1016/s0960-894x(98)00391-6|10.1021/np010448t

>  <synonyms>  (239) 
(9R|10R)-9-acetyloxy-8|8-dimethyl-2-oxo-9|10-dihydropyrano2|3-fchromen-10-yl 2-methylpropanoate|SERAVSHANIN|CHEMBL70302|HY-N4022|AKOS032962681|FS-10662|CS-0024462|Seravshanin|Hyuganin D

>  <cas>  (239) 
nan

$$$$

     RDKit          2D

 25 27  0  0  0  0  0  0  0  0999 V2000
   -0.6905   -4.2432    0.0000 C   0  0  0  0  0  0  0  0  0  0  0  0
   -1.0308   -2.7824    0.0000 C   0  0  0  0  0  0  0  0  0  0  0  0
   -2.4661   -2.3466    0.0000 O   0  0  0  0  0  0  0  0  0  0  0  0
    0.0643   -1.7572    0.0000 O   0  0  0  0  0  0  0  0  0  0  0  0
   -0.2761   -0.2963    0.0000 C   0  0  0  0  0  0  0  0  0  0  0  0
    0.8190    0.7288    0.0000 C   0  0  0  0  0  0  0  0  0  0  0  0
    0.4787    2.1897    0.0000 C   0  0  0  0  0  0  0  0  0  0  0  0
    1.5737    3.2149    0.0000 C   0  0  0  0  0  0  0  0  0  0  0  0
    3.0090    2.7792    0.0000 C   0  0  0  0  0  0  0  0  0  0  0  0
    3.3493    1.3183    0.0000 C   0  0  0  0  0  0  0  0  0  0  0  0
    2.2543    0.2931    0.0000 C   0  0  0  0  0  0  0  0  0  0  0  0
    2.5946   -1.1678    0.0000 O   0  0  0  0  0  0  0  0  0  0  0  0
    4.0299   -1.6035    0.0000 C   0  0  0  0  0  0  0  0  0  0  0  0
    4.3702   -3.0644    0.0000 O   0  0  0  0  0  0  0  0  0  0  0  0
    5.1249   -0.5784    0.0000 C   0  0  0  0  0  0  0  0  0  0  0  0
    4.7846    0.8825    0.0000 C   0  0  0  0  0  0  0  0  0  0  0  0
   -0.9567    2.6255    0.0000 O   0  0  0  0  0  0  0  0  0  0  0  0
   -2.0517    1.6003    0.0000 C   0  0  0  0  0  0  0  0  0  0  0  0
   -2.8711    2.8567    0.0000 C   0  0  0  0  0  0  0  0  0  0  0  0
   -3.4313    1.0115    0.0000 C   0  0  0  0  0  0  0  0  0  0  0  0
   -1.7114    0.1394    0.0000 C   0  0  0  0  0  0  0  0  0  0  0  0
   -2.8064   -0.8857    0.0000 O   0  0  0  0  0  0  0  0  0  0  0  0
   -4.2417   -0.4500    0.0000 C   0  0  0  0  0  0  0  0  0  0  0  0
   -5.3367   -1.4752    0.0000 C   0  0  0  0  0  0  0  0  0  0  0  0
   -4.5820    1.0109    0.0000 O   0  0  0  0  0  0  0  0  0  0  0  0
  1  2  1  0
  2  3  2  0
  2  4  1  0
  5  4  1  1
  5  6  1  0
  6  7  2  0
  7  8  1  0
  8  9  2  0
  9 10  1  0
 10 11  2  0
 11 12  1  0
 12 13  1  0
 13 14  2  0
 13 15  1  0
 15 16  2  0
  7 17  1  0
 17 18  1  0
 18 19  1  0
 18 20  1  0
 18 21  1  0
 21 22  1  1
 22 23  1  0
 23 24  1  0
 23 25  2  0
 21  5  1  0
 11  6  1  0
 16 10  1  0
M  END
>  <identifier>  (240) 
CNP0193872.1

>  <canonical_smiles>  (240) 
CC(=O)O[C@@H]1C2=C(C=CC3=C2OC(=O)C=C3)OC(C)(C)[C@@H]1OC(C)=O

>  <standard_inchi>  (240) 
InChI=1S/C18H18O7/c1-9(19)22-16-14-12(25-18(3,4)17(16)23-10(2)20)7-5-11-6-8-13(21)24-15(11)14/h5-8,16-17H,1-4H3/t16-,17-/m1/s1

>  <standard_inchi_key>  (240) 
YJOWXMGENDGFDH-IAGOWNOFSA-N

>  <name>  (240) 
quianhucoumarin D

>  <iupac_name>  (240) 
[(9~{R},10~{R})-9-acetoxy-8,8-dimethyl-2-oxo-9,10-dihydropyrano[2,3-f]chromen-10-yl] acetate

>  <annotation_level>  (240) 
5

>  <total_atom_count>  (240) 
43

>  <heavy_atom_count>  (240) 
25

>  <molecular_weight>  (240) 
346.34

>  <exact_molecular_weight>  (240) 
346.10525

>  <molecular_formula>  (240) 
C18H18O7

>  <alogp>  (240) 
2.50

>  <topological_polar_surface_area>  (240) 
92.04

>  <rotatable_bond_count>  (240) 
2

>  <hydrogen_bond_acceptors>  (240) 
7

>  <hydrogen_bond_donors>  (240) 
0

>  <hydrogen_bond_acceptors_lipinski>  (240) 
7

>  <hydrogen_bond_donors_lipinski>  (240) 
0

>  <lipinski_rule_of_five_violations>  (240) 
0

>  <aromatic_rings_count>  (240) 
2

>  <qed_drug_likeliness>  (240) 
0.61

>  <formal_charge>  (240) 
0

>  <fractioncsp3>  (240) 
0.39

>  <number_of_minimal_rings>  (240) 
3

>  <van_der_walls_volume>  (240) 
297.76

>  <contains_sugar>  (240) 
False

>  <contains_ring_sugars>  (240) 
False

>  <contains_linear_sugars>  (240) 
False

>  <murcko_framework>  (240) 
O1c2ccc3C=CCOc3c2CCC1

>  <np_likeness>  (240) 
2.17

>  <chemical_class>  (240) 
Coumarins and derivatives

>  <chemical_sub_class>  (240) 
Pyranocoumarins

>  <chemical_super_class>  (240) 
Phenylpropanoids and polyketides

>  <direct_parent_classification>  (240) 
Angular pyranocoumarins

>  <np_classifier_pathway>  (240) 
Shikimates and Phenylpropanoids

>  <np_classifier_superclass>  (240) 
Coumarins

>  <np_classifier_class>  (240) 
Pyranocoumarins

>  <np_classifier_is_glycoside>  (240) 
False

>  <organisms>  (240) 
Prionosciadium watsoni

>  <collections>  (240) 
BIOFACQUIM|CMAUP (cCollective molecular activities of useful plants)|Latin America dataset|NPASS|Super Natural II

>  <dois>  (240) 
10.1021/np010448t

>  <synonyms>  (240) 
CHEMBL512733|Quianhucoumarin D

>  <cas>  (240) 
nan

$$$$

     RDKit          2D

 19 21  0  0  0  0  0  0  0  0999 V2000
   -4.3481    0.8049    0.0000 C   0  0  0  0  0  0  0  0  0  0  0  0
   -3.1941   -0.1533    0.0000 C   0  0  0  0  0  0  0  0  0  0  0  0
   -4.3381   -1.1235    0.0000 C   0  0  0  0  0  0  0  0  0  0  0  0
   -2.4373   -1.4485    0.0000 O   0  0  0  0  0  0  0  0  0  0  0  0
   -0.9374   -1.4407    0.0000 C   0  0  0  0  0  0  0  0  0  0  0  0
   -0.1806   -2.7358    0.0000 C   0  0  0  0  0  0  0  0  0  0  0  0
    1.3194   -2.7280    0.0000 C   0  0  0  0  0  0  0  0  0  0  0  0
    2.0626   -1.4251    0.0000 C   0  0  0  0  0  0  0  0  0  0  0  0
    3.5626   -1.4173    0.0000 C   0  0  0  0  0  0  0  0  0  0  0  0
    4.3058   -0.1144    0.0000 C   0  0  0  0  0  0  0  0  0  0  0  0
    3.5491    1.1807    0.0000 C   0  0  0  0  0  0  0  0  0  0  0  0
    4.2923    2.4837    0.0000 O   0  0  0  0  0  0  0  0  0  0  0  0
    2.0491    1.1730    0.0000 O   0  0  0  0  0  0  0  0  0  0  0  0
    1.3059   -0.1300    0.0000 C   0  0  0  0  0  0  0  0  0  0  0  0
   -0.1941   -0.1378    0.0000 C   0  0  0  0  0  0  0  0  0  0  0  0
   -0.9509    1.1574    0.0000 C   0  0  0  0  0  0  0  0  0  0  0  0
   -0.2076    2.4603    0.0000 O   0  0  0  0  0  0  0  0  0  0  0  0
   -2.4508    1.1496    0.0000 C   0  0  0  0  0  0  0  0  0  0  0  0
   -3.2076    2.4447    0.0000 O   0  0  0  0  0  0  0  0  0  0  0  0
  1  2  1  0
  2  3  1  0
  2  4  1  0
  4  5  1  0
  5  6  2  0
  6  7  1  0
  7  8  2  0
  8  9  1  0
  9 10  2  0
 10 11  1  0
 11 12  2  0
 11 13  1  0
 13 14  1  0
 14 15  2  0
 15 16  1  0
 16 17  1  6
 16 18  1  0
 18 19  1  6
 18  2  1  0
 15  5  1  0
 14  8  1  0
M  END
>  <identifier>  (241) 
CNP0179420.1

>  <canonical_smiles>  (241) 
CC1(C)OC2=CC=C3C=CC(=O)OC3=C2[C@@H](O)[C@H]1O

>  <standard_inchi>  (241) 
InChI=1S/C14H14O5/c1-14(2)13(17)11(16)10-8(19-14)5-3-7-4-6-9(15)18-12(7)10/h3-6,11,13,16-17H,1-2H3/t11-,13-/m1/s1

>  <standard_inchi_key>  (241) 
HKXQUNNSKMWIKJ-DGCLKSJQSA-N

>  <name>  (241) 
(+)-cis-Khellactone

>  <iupac_name>  (241) 
(9~{R},10~{R})-9,10-dihydroxy-8,8-dimethyl-9,10-dihydropyrano[2,3-f]chromen-2-one

>  <annotation_level>  (241) 
5

>  <total_atom_count>  (241) 
33

>  <heavy_atom_count>  (241) 
19

>  <molecular_weight>  (241) 
262.26

>  <exact_molecular_weight>  (241) 
262.08412

>  <molecular_formula>  (241) 
C14H14O5

>  <alogp>  (241) 
1.36

>  <topological_polar_surface_area>  (241) 
79.90

>  <rotatable_bond_count>  (241) 
0

>  <hydrogen_bond_acceptors>  (241) 
5

>  <hydrogen_bond_donors>  (241) 
2

>  <hydrogen_bond_acceptors_lipinski>  (241) 
5

>  <hydrogen_bond_donors_lipinski>  (241) 
2

>  <lipinski_rule_of_five_violations>  (241) 
0

>  <aromatic_rings_count>  (241) 
2

>  <qed_drug_likeliness>  (241) 
0.70

>  <formal_charge>  (241) 
0

>  <fractioncsp3>  (241) 
0.36

>  <number_of_minimal_rings>  (241) 
3

>  <van_der_walls_volume>  (241) 
224.32

>  <contains_sugar>  (241) 
False

>  <contains_ring_sugars>  (241) 
False

>  <contains_linear_sugars>  (241) 
False

>  <murcko_framework>  (241) 
O1c2ccc3C=CCOc3c2CCC1

>  <np_likeness>  (241) 
2.21

>  <chemical_class>  (241) 
Coumarins and derivatives

>  <chemical_sub_class>  (241) 
Pyranocoumarins

>  <chemical_super_class>  (241) 
Phenylpropanoids and polyketides

>  <direct_parent_classification>  (241) 
Angular pyranocoumarins

>  <np_classifier_pathway>  (241) 
Shikimates and Phenylpropanoids

>  <np_classifier_superclass>  (241) 
Coumarins

>  <np_classifier_class>  (241) 
Pyranocoumarins

>  <np_classifier_is_glycoside>  (241) 
False

>  <organisms>  (241) 
Agathosma abrupta|Amphidinium corpulentum|Angelica decursiva|Angelica furcijuga|Angelica keiskei|Cotoneaster veitchii|Dysidea frondosa|Gomphidius glutinosus|Hyaena hyaena|Ircinia campana|Levisticum officinale|Peucedanum praeruptorum|Prionosciadium watsoni|Seseli devenyense Simonkai|Streptomyces uncialis|Trichoderma citrinoviride

>  <collections>  (241) 
BIOFACQUIM|CMAUP (cCollective molecular activities of useful plants)|KNApSaCK|Latin America dataset|NPASS|Phyto4Health|Super Natural II|TCMDB-Taiwan (Traditional Chinese Medicine database)|TIPdb (database of Taiwan indigenous plants)|ZINC NP

>  <dois>  (241) 
10.1021/np010448t

>  <synonyms>  (241) 
24144-61-4|15645-11-1|Visnagan|cis-Khellactone|Khellactone| cis-(+)-|cis-(+)-Khellactone|V04P1S3P1A|(3'R|4'R)-(+)-cis-Khellactone|UNII-V04P1S3P1A|(9R|10R)-9|10-dihydroxy-8|8-dimethyl-9|10-dihydropyrano2|3-fchromen-2-one|CHEMBL68727|GAS8L324N7|(9R|10R)-9|10-Dihydro-9|10-dihydroxy-8|8-dimethyl-2H|8H-benzo(1|2-b:3|4-b')dipyran-2-one|2H|8H-Benzo(1|2-b:3|4-b')dipyran-2-one| 9|10-dihydro-9|10-dihydroxy-8|8-dimethyl-| (9R|10R)-|UNII-GAS8L324N7|MLS002472927|SCHEMBL4743847|HMS2198C16|HY-N3422|BDBM50069687|AKOS040761950|FS-8788|SMR001397038|XK163784|CS-0024188|(+)-ciskhellactone

>  <cas>  (241) 
24144-61-4|15645-11-1

$$$$

     RDKit          2D

 24 26  0  0  0  0  0  0  0  0999 V2000
   -6.4862    0.3958    0.0000 C   0  0  0  0  0  0  0  0  0  0  0  0
   -6.2115   -1.0789    0.0000 C   0  0  0  0  0  0  0  0  0  0  0  0
   -4.7970   -1.5782    0.0000 C   0  0  0  0  0  0  0  0  0  0  0  0
   -4.5223   -3.0529    0.0000 C   0  0  0  0  0  0  0  0  0  0  0  0
   -3.6574   -0.6030    0.0000 C   0  0  0  0  0  0  0  0  0  0  0  0
   -3.9321    0.8716    0.0000 O   0  0  0  0  0  0  0  0  0  0  0  0
   -2.2429   -1.1024    0.0000 O   0  0  0  0  0  0  0  0  0  0  0  0
   -1.1032   -0.1271    0.0000 C   0  0  0  0  0  0  0  0  0  0  0  0
    0.3112   -0.6265    0.0000 C   0  0  0  0  0  0  0  0  0  0  0  0
    1.4509    0.3488    0.0000 C   0  0  0  0  0  0  0  0  0  0  0  0
    1.1761    1.8234    0.0000 C   0  0  0  0  0  0  0  0  0  0  0  0
    2.3158    2.7986    0.0000 C   0  0  0  0  0  0  0  0  0  0  0  0
    3.7303    2.2993    0.0000 C   0  0  0  0  0  0  0  0  0  0  0  0
    4.0050    0.8247    0.0000 C   0  0  0  0  0  0  0  0  0  0  0  0
    2.8653   -0.1506    0.0000 C   0  0  0  0  0  0  0  0  0  0  0  0
    3.1401   -1.6252    0.0000 O   0  0  0  0  0  0  0  0  0  0  0  0
    4.5545   -2.1246    0.0000 C   0  0  0  0  0  0  0  0  0  0  0  0
    4.8293   -3.5992    0.0000 O   0  0  0  0  0  0  0  0  0  0  0  0
    5.6942   -1.1493    0.0000 C   0  0  0  0  0  0  0  0  0  0  0  0
    5.4194    0.3253    0.0000 C   0  0  0  0  0  0  0  0  0  0  0  0
   -0.2383    2.3228    0.0000 O   0  0  0  0  0  0  0  0  0  0  0  0
   -1.3780    1.3475    0.0000 C   0  0  0  0  0  0  0  0  0  0  0  0
   -2.1405    2.6392    0.0000 C   0  0  0  0  0  0  0  0  0  0  0  0
   -2.7825    0.8209    0.0000 C   0  0  0  0  0  0  0  0  0  0  0  0
  1  2  1  0
  2  3  2  0
  3  4  1  0
  3  5  1  0
  5  6  2  0
  5  7  1  0
  8  7  1  1
  8  9  1  0
  9 10  1  0
 10 11  2  0
 11 12  1  0
 12 13  2  0
 13 14  1  0
 14 15  2  0
 15 16  1  0
 16 17  1  0
 17 18  2  0
 17 19  1  0
 19 20  2  0
 11 21  1  0
 21 22  1  0
 22 23  1  0
 22 24  1  0
 22  8  1  0
 15 10  1  0
 20 14  1  0
M  END
>  <identifier>  (242) 
CNP0214618.1

>  <canonical_smiles>  (242) 
C/C=C(/C)C(=O)O[C@@H]1CC2=C(C=CC3=C2OC(=O)C=C3)OC1(C)C

>  <standard_inchi>  (242) 
InChI=1S/C19H20O5/c1-5-11(2)18(21)22-15-10-13-14(24-19(15,3)4)8-6-12-7-9-16(20)23-17(12)13/h5-9,15H,10H2,1-4H3/b11-5-/t15-/m1/s1

>  <standard_inchi_key>  (242) 
RRHCDWLSHIIIIT-NVWZYQMFSA-N

>  <name>  (242) 
Selinidin

>  <iupac_name>  (242) 
[(9~{R})-8,8-dimethyl-2-oxo-9,10-dihydropyrano[2,3-f]chromen-9-yl] (~{Z})-2-methylbut-2-enoate

>  <annotation_level>  (242) 
5

>  <total_atom_count>  (242) 
44

>  <heavy_atom_count>  (242) 
24

>  <molecular_weight>  (242) 
328.36

>  <exact_molecular_weight>  (242) 
328.13107

>  <molecular_formula>  (242) 
C19H20O5

>  <alogp>  (242) 
3.38

>  <topological_polar_surface_area>  (242) 
65.74

>  <rotatable_bond_count>  (242) 
2

>  <hydrogen_bond_acceptors>  (242) 
5

>  <hydrogen_bond_donors>  (242) 
0

>  <hydrogen_bond_acceptors_lipinski>  (242) 
5

>  <hydrogen_bond_donors_lipinski>  (242) 
0

>  <lipinski_rule_of_five_violations>  (242) 
0

>  <aromatic_rings_count>  (242) 
2

>  <qed_drug_likeliness>  (242) 
0.48

>  <formal_charge>  (242) 
0

>  <fractioncsp3>  (242) 
0.37

>  <number_of_minimal_rings>  (242) 
3

>  <van_der_walls_volume>  (242) 
294.68

>  <contains_sugar>  (242) 
False

>  <contains_ring_sugars>  (242) 
False

>  <contains_linear_sugars>  (242) 
False

>  <murcko_framework>  (242) 
O1c2ccc3C=CCOc3c2CCC1

>  <np_likeness>  (242) 
2.61

>  <chemical_class>  (242) 
Coumarins and derivatives

>  <chemical_sub_class>  (242) 
Pyranocoumarins

>  <chemical_super_class>  (242) 
Phenylpropanoids and polyketides

>  <direct_parent_classification>  (242) 
Angular pyranocoumarins

>  <np_classifier_pathway>  (242) 
Shikimates and Phenylpropanoids

>  <np_classifier_superclass>  (242) 
Coumarins

>  <np_classifier_class>  (242) 
Pyranocoumarins

>  <np_classifier_is_glycoside>  (242) 
False

>  <organisms>  (242) 
Angelica keiskei|Humulus scandens|Kopsia albiflora|Libanotis buchtormensis|Ligusticum elatum|Nardostachys jatamansi|Niphogeton ternata|Peucedanum japonicum|Prionosciadium watsoni|Ribes sanguineum|Stachys chinensis|Talaromyces avellaneus|Vicia faba

>  <collections>  (242) 
BIOFACQUIM|CMAUP (cCollective molecular activities of useful plants)|ETM (Ethiopian Traditional Medicine) DB|Latin America dataset|NPASS|NPEdia|Super Natural II|ZINC NP

>  <dois>  (242) 
10.1016/j.bmcl.2015.04.003|10.1021/np010448t

>  <synonyms>  (242) 
Jatamansin|(9R)-8|8-dimethyl-2-oxo-9|10-dihydropyrano2|3-hchromen-9-yl (Z)-2-methylbut-2-enoate|19427-82-8|Xanthogalin|Spectrum5_000398|BSPBio_003337|MLS002472947|SPECTRUM1504159|CHEMBL457257|SCHEMBL12062120|HMS2193F07|BDBM50069685|FS-7060|SDCCGMLS-0066791.P001|SMR001397055|BRD-K07212038-001-02-1|selinidin

>  <cas>  (242) 
19427-82-8

$$$$

     RDKit          2D

 23 25  0  0  0  0  0  0  0  0999 V2000
   -6.5058   -0.9836    0.0000 C   0  0  0  0  0  0  0  0  0  0  0  0
   -5.0974   -1.4999    0.0000 C   0  0  0  0  0  0  0  0  0  0  0  0
   -4.8404   -2.9777    0.0000 C   0  0  0  0  0  0  0  0  0  0  0  0
   -3.9461   -0.5384    0.0000 C   0  0  0  0  0  0  0  0  0  0  0  0
   -4.2031    0.9394    0.0000 O   0  0  0  0  0  0  0  0  0  0  0  0
   -2.5378   -1.0548    0.0000 O   0  0  0  0  0  0  0  0  0  0  0  0
   -1.3865   -0.0933    0.0000 C   0  0  0  0  0  0  0  0  0  0  0  0
    0.0219   -0.6096    0.0000 C   0  0  0  0  0  0  0  0  0  0  0  0
    1.1732    0.3519    0.0000 C   0  0  0  0  0  0  0  0  0  0  0  0
    0.9162    1.8297    0.0000 C   0  0  0  0  0  0  0  0  0  0  0  0
    2.0675    2.7912    0.0000 C   0  0  0  0  0  0  0  0  0  0  0  0
    3.4758    2.2749    0.0000 C   0  0  0  0  0  0  0  0  0  0  0  0
    3.7328    0.7971    0.0000 C   0  0  0  0  0  0  0  0  0  0  0  0
    2.5815   -0.1644    0.0000 C   0  0  0  0  0  0  0  0  0  0  0  0
    2.8385   -1.6422    0.0000 O   0  0  0  0  0  0  0  0  0  0  0  0
    4.2469   -2.1585    0.0000 C   0  0  0  0  0  0  0  0  0  0  0  0
    4.5039   -3.6363    0.0000 O   0  0  0  0  0  0  0  0  0  0  0  0
    5.3982   -1.1970    0.0000 C   0  0  0  0  0  0  0  0  0  0  0  0
    5.1412    0.2808    0.0000 C   0  0  0  0  0  0  0  0  0  0  0  0
   -0.4922    2.3461    0.0000 O   0  0  0  0  0  0  0  0  0  0  0  0
   -1.6435    1.3846    0.0000 C   0  0  0  0  0  0  0  0  0  0  0  0
   -2.3905    2.6853    0.0000 C   0  0  0  0  0  0  0  0  0  0  0  0
   -3.0542    0.8748    0.0000 C   0  0  0  0  0  0  0  0  0  0  0  0
  1  2  1  0
  2  3  1  0
  2  4  1  0
  4  5  2  0
  4  6  1  0
  7  6  1  1
  7  8  1  0
  8  9  1  0
  9 10  2  0
 10 11  1  0
 11 12  2  0
 12 13  1  0
 13 14  2  0
 14 15  1  0
 15 16  1  0
 16 17  2  0
 16 18  1  0
 18 19  2  0
 10 20  1  0
 20 21  1  0
 21 22  1  0
 21 23  1  0
 21  7  1  0
 14  9  1  0
 19 13  1  0
M  END
>  <identifier>  (243) 
CNP0287511.1

>  <canonical_smiles>  (243) 
CC(C)C(=O)O[C@@H]1CC2=C(C=CC3=C2OC(=O)C=C3)OC1(C)C

>  <standard_inchi>  (243) 
InChI=1S/C18H20O5/c1-10(2)17(20)21-14-9-12-13(23-18(14,3)4)7-5-11-6-8-15(19)22-16(11)12/h5-8,10,14H,9H2,1-4H3/t14-/m1/s1

>  <standard_inchi_key>  (243) 
PKHNHXIOSSYBJU-CQSZACIVSA-N

>  <name>  (243) 
(R)-O-isobutyroyllomatin

>  <iupac_name>  (243) 
[(9~{R})-8,8-dimethyl-2-oxo-9,10-dihydropyrano[2,3-f]chromen-9-yl] 2-methylpropanoate

>  <annotation_level>  (243) 
5

>  <total_atom_count>  (243) 
43

>  <heavy_atom_count>  (243) 
23

>  <molecular_weight>  (243) 
316.35

>  <exact_molecular_weight>  (243) 
316.13107

>  <molecular_formula>  (243) 
C18H20O5

>  <alogp>  (243) 
3.07

>  <topological_polar_surface_area>  (243) 
65.74

>  <rotatable_bond_count>  (243) 
2

>  <hydrogen_bond_acceptors>  (243) 
5

>  <hydrogen_bond_donors>  (243) 
0

>  <hydrogen_bond_acceptors_lipinski>  (243) 
5

>  <hydrogen_bond_donors_lipinski>  (243) 
0

>  <lipinski_rule_of_five_violations>  (243) 
0

>  <aromatic_rings_count>  (243) 
2

>  <qed_drug_likeliness>  (243) 
0.63

>  <formal_charge>  (243) 
0

>  <fractioncsp3>  (243) 
0.44

>  <number_of_minimal_rings>  (243) 
3

>  <van_der_walls_volume>  (243) 
285.36

>  <contains_sugar>  (243) 
False

>  <contains_ring_sugars>  (243) 
False

>  <contains_linear_sugars>  (243) 
False

>  <murcko_framework>  (243) 
O1c2ccc3C=CCOc3c2CCC1

>  <np_likeness>  (243) 
2.16

>  <chemical_class>  (243) 
Coumarins and derivatives

>  <chemical_sub_class>  (243) 
Pyranocoumarins

>  <chemical_super_class>  (243) 
Phenylpropanoids and polyketides

>  <direct_parent_classification>  (243) 
Angular pyranocoumarins

>  <np_classifier_pathway>  (243) 
Shikimates and Phenylpropanoids

>  <np_classifier_superclass>  (243) 
Coumarins

>  <np_classifier_class>  (243) 
Pyranocoumarins

>  <np_classifier_is_glycoside>  (243) 
False

>  <organisms>  (243) 
Prionosciadium watsoni

>  <collections>  (243) 
BIOFACQUIM|CMAUP (cCollective molecular activities of useful plants)|Latin America dataset|NPASS|Super Natural II

>  <dois>  (243) 
10.1021/np010448t

>  <synonyms>  (243) 
440094-38-2|CHEMBL449490|AKOS040763535|FS-8345|Isobutyric acid (9R)-8 8-dimethyl-9 10-dihydro-2H 8H-benzo1 2-b:3 4-b'dipyran-2-one-9-yl ester

>  <cas>  (243) 
440094-38-2

$$$$

     RDKit          2D

 27 29  0  0  0  0  0  0  0  0999 V2000
    5.0239   -3.3958    0.0000 C   0  0  0  0  0  0  0  0  0  0  0  0
    6.0160   -2.2708    0.0000 C   0  0  0  0  0  0  0  0  0  0  0  0
    5.5378   -0.8491    0.0000 C   0  0  0  0  0  0  0  0  0  0  0  0
    6.5299    0.2759    0.0000 C   0  0  0  0  0  0  0  0  0  0  0  0
    4.0674   -0.5524    0.0000 C   0  0  0  0  0  0  0  0  0  0  0  0
    3.0753   -1.6774    0.0000 O   0  0  0  0  0  0  0  0  0  0  0  0
    3.5892    0.8693    0.0000 O   0  0  0  0  0  0  0  0  0  0  0  0
    2.1188    1.1660    0.0000 C   0  0  0  0  0  0  0  0  0  0  0  0
    1.1267    0.0410    0.0000 C   0  0  0  0  0  0  0  0  0  0  0  0
   -0.3437    0.3377    0.0000 C   0  0  0  0  0  0  0  0  0  0  0  0
   -0.8219    1.7594    0.0000 C   0  0  0  0  0  0  0  0  0  0  0  0
   -2.2922    2.0561    0.0000 C   0  0  0  0  0  0  0  0  0  0  0  0
   -3.2844    0.9311    0.0000 C   0  0  0  0  0  0  0  0  0  0  0  0
   -4.7547    1.2278    0.0000 O   0  0  0  0  0  0  0  0  0  0  0  0
   -5.7469    0.1028    0.0000 C   0  0  0  0  0  0  0  0  0  0  0  0
   -7.2172    0.3995    0.0000 C   0  0  0  0  0  0  0  0  0  0  0  0
   -5.2687   -1.3189    0.0000 C   0  0  0  0  0  0  0  0  0  0  0  0
   -3.7983   -1.6156    0.0000 C   0  0  0  0  0  0  0  0  0  0  0  0
   -3.3201   -3.0373    0.0000 O   0  0  0  0  0  0  0  0  0  0  0  0
   -2.8062   -0.4906    0.0000 C   0  0  0  0  0  0  0  0  0  0  0  0
   -1.3358   -0.7873    0.0000 C   0  0  0  0  0  0  0  0  0  0  0  0
   -0.8576   -2.2090    0.0000 O   0  0  0  0  0  0  0  0  0  0  0  0
   -1.8497   -3.3340    0.0000 C   0  0  0  0  0  0  0  0  0  0  0  0
    0.1702    2.8845    0.0000 O   0  0  0  0  0  0  0  0  0  0  0  0
    1.6406    2.5878    0.0000 C   0  0  0  0  0  0  0  0  0  0  0  0
    1.6775    4.0873    0.0000 C   0  0  0  0  0  0  0  0  0  0  0  0
    3.1238    2.8118    0.0000 C   0  0  0  0  0  0  0  0  0  0  0  0
  1  2  1  0
  2  3  2  0
  3  4  1  0
  3  5  1  0
  5  6  2  0
  5  7  1  0
  8  7  1  6
  8  9  1  0
  9 10  1  0
 10 11  2  0
 11 12  1  0
 12 13  2  0
 13 14  1  0
 14 15  1  0
 15 16  1  0
 15 17  2  0
 17 18  1  0
 18 19  2  0
 18 20  1  0
 20 21  2  0
 21 22  1  0
 22 23  1  0
 11 24  1  0
 24 25  1  0
 25 26  1  0
 25 27  1  0
 25  8  1  0
 21 10  1  0
 20 13  1  0
M  END
>  <identifier>  (244) 
CNP0322254.1

>  <canonical_smiles>  (244) 
C/C=C(/C)C(=O)O[C@@H]1CC2=C(C=C3OC(C)=CC(=O)C3=C2OC)OC1(C)C

>  <standard_inchi>  (244) 
InChI=1S/C21H24O6/c1-7-11(2)20(23)26-17-9-13-15(27-21(17,4)5)10-16-18(19(13)24-6)14(22)8-12(3)25-16/h7-8,10,17H,9H2,1-6H3/b11-7-/t17-/m1/s1

>  <standard_inchi_key>  (244) 
QNOQNIIIQHXDAV-CGICMKJESA-N

>  <name>  (244) 
[(3R)-5-methoxy-2,2,8-trimethyl-6-oxo-3,4-dihydropyrano[3,2-g]chromen-3-yl] (Z)-2-methylbut-2-enoate

>  <iupac_name>  (244) 
[(3~{R})-5-methoxy-2,2,8-trimethyl-6-oxo-3,4-dihydropyrano[3,2-g]chromen-3-yl] (~{Z})-2-methylbut-2-enoate

>  <annotation_level>  (244) 
5

>  <total_atom_count>  (244) 
51

>  <heavy_atom_count>  (244) 
27

>  <molecular_weight>  (244) 
372.42

>  <exact_molecular_weight>  (244) 
372.15729

>  <molecular_formula>  (244) 
C21H24O6

>  <alogp>  (244) 
3.70

>  <topological_polar_surface_area>  (244) 
74.97

>  <rotatable_bond_count>  (244) 
3

>  <hydrogen_bond_acceptors>  (244) 
6

>  <hydrogen_bond_donors>  (244) 
0

>  <hydrogen_bond_acceptors_lipinski>  (244) 
6

>  <hydrogen_bond_donors_lipinski>  (244) 
0

>  <lipinski_rule_of_five_violations>  (244) 
0

>  <aromatic_rings_count>  (244) 
2

>  <qed_drug_likeliness>  (244) 
0.60

>  <formal_charge>  (244) 
0

>  <fractioncsp3>  (244) 
0.43

>  <number_of_minimal_rings>  (244) 
3

>  <van_der_walls_volume>  (244) 
338.08

>  <contains_sugar>  (244) 
False

>  <contains_ring_sugars>  (244) 
False

>  <contains_linear_sugars>  (244) 
False

>  <murcko_framework>  (244) 
O1C=CCc2cc3c(OCCC3)cc12

>  <np_likeness>  (244) 
2.78

>  <chemical_class>  (244) 
Benzopyrans

>  <chemical_sub_class>  (244) 
1-benzopyrans

>  <chemical_super_class>  (244) 
Organoheterocyclic compounds

>  <direct_parent_classification>  (244) 
Pyranochromenes

>  <np_classifier_pathway>  (244) 
Polyketides

>  <np_classifier_superclass>  (244) 
Chromanes

>  <np_classifier_class>  (244) 
Chromones

>  <np_classifier_is_glycoside>  (244) 
False

>  <organisms>  (244) 
Prionosciadium watsoni

>  <collections>  (244) 
BIOFACQUIM|CMAUP (cCollective molecular activities of useful plants)|Latin America dataset|NPASS|Super Natural II

>  <dois>  (244) 
10.1021/np010448t

>  <synonyms>  (244) 
CHEMBL458524|2-methylbut-(2Z)-enoic acid (3R)-5-methoxy-3 4-dihydro-2 2 8-trimethyl-6-oxo-2H 6H-benzo1 2-b:5 4-b'dipyran-3-yl ester

>  <cas>  (244) 
nan

$$$$

     RDKit          2D

 16 17  0  0  0  0  0  0  0  0999 V2000
   -3.3327    1.9490    0.0000 C   0  0  0  0  0  0  0  0  0  0  0  0
   -2.2780    0.8824    0.0000 C   0  0  0  0  0  0  0  0  0  0  0  0
   -2.5210   -0.5978    0.0000 O   0  0  0  0  0  0  0  0  0  0  0  0
   -1.1884   -1.2863    0.0000 C   0  0  0  0  0  0  0  0  0  0  0  0
   -1.1489   -2.6357    0.0000 O   0  0  0  0  0  0  0  0  0  0  0  0
   -0.1218   -0.2316    0.0000 C   0  0  0  0  0  0  0  0  0  0  0  0
    0.4079   -1.6350    0.0000 C   0  0  0  0  0  0  0  0  0  0  0  0
   -0.3139   -2.7759    0.0000 C   0  0  0  0  0  0  0  0  0  0  0  0
    1.8881   -1.8780    0.0000 C   0  0  0  0  0  0  0  0  0  0  0  0
    2.8386   -0.7177    0.0000 C   0  0  0  0  0  0  0  0  0  0  0  0
    2.3090    0.6857    0.0000 C   0  0  0  0  0  0  0  0  0  0  0  0
    3.2595    1.8461    0.0000 O   0  0  0  0  0  0  0  0  0  0  0  0
    0.8288    0.9287    0.0000 C   0  0  0  0  0  0  0  0  0  0  0  0
    0.5415    2.1093    0.0000 O   0  0  0  0  0  0  0  0  0  0  0  0
   -0.7952    1.1087    0.0000 C   0  0  0  0  0  0  0  0  0  0  0  0
   -0.3732    2.2481    0.0000 O   0  0  0  0  0  0  0  0  0  0  0  0
  1  2  2  0
  2  3  1  0
  3  4  1  0
  4  5  2  0
  6  4  1  6
  6  7  1  0
  7  8  1  1
  7  9  1  0
  9 10  1  0
 10 11  1  0
 11 12  2  0
 11 13  1  0
 13 14  1  1
  6 15  1  0
 15 16  1  6
 15  2  1  0
 13  6  1  0
M  END
>  <identifier>  (245) 
CNP0341506.1

>  <canonical_smiles>  (245) 
C=C1OC(=O)[C@]2([C@H](C)CCC(=O)[C@@H]2O)[C@H]1O

>  <standard_inchi>  (245) 
InChI=1S/C11H14O5/c1-5-3-4-7(12)9(14)11(5)8(13)6(2)16-10(11)15/h5,8-9,13-14H,2-4H2,1H3/t5-,8+,9+,11-/m1/s1

>  <standard_inchi_key>  (245) 
ANHHAPDWNRZSRR-SIWOTSRUSA-N

>  <name>  (245) 
massarigenin B

>  <iupac_name>  (245) 
(4~{R},5~{R},6~{R},10~{R})-4,6-dihydroxy-10-methyl-3-methylene-2-oxaspiro[4.5]decane-1,7-dione

>  <annotation_level>  (245) 
5

>  <total_atom_count>  (245) 
30

>  <heavy_atom_count>  (245) 
16

>  <molecular_weight>  (245) 
226.23

>  <exact_molecular_weight>  (245) 
226.08412

>  <molecular_formula>  (245) 
C11H14O5

>  <alogp>  (245) 
-0.24

>  <topological_polar_surface_area>  (245) 
83.83

>  <rotatable_bond_count>  (245) 
0

>  <hydrogen_bond_acceptors>  (245) 
5

>  <hydrogen_bond_donors>  (245) 
2

>  <hydrogen_bond_acceptors_lipinski>  (245) 
5

>  <hydrogen_bond_donors_lipinski>  (245) 
2

>  <lipinski_rule_of_five_violations>  (245) 
0

>  <aromatic_rings_count>  (245) 
0

>  <qed_drug_likeliness>  (245) 
0.56

>  <formal_charge>  (245) 
0

>  <fractioncsp3>  (245) 
0.64

>  <number_of_minimal_rings>  (245) 
2

>  <van_der_walls_volume>  (245) 
196.48

>  <contains_sugar>  (245) 
False

>  <contains_ring_sugars>  (245) 
False

>  <contains_linear_sugars>  (245) 
False

>  <murcko_framework>  (245) 
O1CCC2(C1)CCCCC2

>  <np_likeness>  (245) 
2.82

>  <chemical_class>  (245) 
Tetrahydrofurans

>  <chemical_sub_class>  (245) 
Tetrahydrofurans

>  <chemical_super_class>  (245) 
Organoheterocyclic compounds

>  <direct_parent_classification>  (245) 
Tetrahydrofurans

>  <np_classifier_pathway>  (245) 
Polyketides

>  <np_classifier_superclass>  (245) 
Cyclic polyketides

>  <np_classifier_class>  (245) 
Simple cyclic polyketides

>  <np_classifier_is_glycoside>  (245) 
False

>  <organisms>  (245) 
Malbranchea flavorosea|Massarina tunicata

>  <collections>  (245) 
BIOFACQUIM|KNApSaCK|Latin America dataset|NPAtlas

>  <dois>  (245) 
10.1021/acs.jnatprod.6b00977|10.1021/np020342d

>  <synonyms>  (245) 
Mabetaarigenin B|CHEMBL500837|CHEBI:199205|(4R|5R|6R|10R)-4|6-dihydroxy-10-methyl-3-methylidene-2-oxaspiro4.5decane-1|7-dione|Massarigenins B

>  <cas>  (245) 
nan

$$$$

     RDKit          2D

 23 25  0  0  0  0  0  0  0  0999 V2000
   -3.5357   -1.8990    0.0000 C   0  0  0  0  0  0  0  0  0  0  0  0
   -2.1374   -2.4419    0.0000 O   0  0  0  0  0  0  0  0  0  0  0  0
   -0.9681   -1.5023    0.0000 C   0  0  0  0  0  0  0  0  0  0  0  0
   -1.1971   -0.0199    0.0000 C   0  0  0  0  0  0  0  0  0  0  0  0
   -2.5954    0.5230    0.0000 C   0  0  0  0  0  0  0  0  0  0  0  0
   -2.8244    2.0054    0.0000 C   0  0  0  0  0  0  0  0  0  0  0  0
   -4.2227    2.5483    0.0000 C   0  0  0  0  0  0  0  0  0  0  0  0
   -5.3920    1.6088    0.0000 C   0  0  0  0  0  0  0  0  0  0  0  0
   -5.1630    0.1264    0.0000 C   0  0  0  0  0  0  0  0  0  0  0  0
   -3.7647   -0.4165    0.0000 C   0  0  0  0  0  0  0  0  0  0  0  0
   -0.0277    0.9196    0.0000 O   0  0  0  0  0  0  0  0  0  0  0  0
    1.3706    0.3767    0.0000 C   0  0  0  0  0  0  0  0  0  0  0  0
    2.5399    1.3162    0.0000 C   0  0  0  0  0  0  0  0  0  0  0  0
    2.3109    2.7986    0.0000 O   0  0  0  0  0  0  0  0  0  0  0  0
    3.4802    3.7381    0.0000 C   0  0  0  0  0  0  0  0  0  0  0  0
    3.9382    0.7733    0.0000 C   0  0  0  0  0  0  0  0  0  0  0  0
    5.1075    1.7128    0.0000 O   0  0  0  0  0  0  0  0  0  0  0  0
    4.1672   -0.7091    0.0000 C   0  0  0  0  0  0  0  0  0  0  0  0
    2.9978   -1.6486    0.0000 C   0  0  0  0  0  0  0  0  0  0  0  0
    3.2268   -3.1311    0.0000 O   0  0  0  0  0  0  0  0  0  0  0  0
    1.5995   -1.1057    0.0000 C   0  0  0  0  0  0  0  0  0  0  0  0
    0.4302   -2.0453    0.0000 C   0  0  0  0  0  0  0  0  0  0  0  0
    0.6592   -3.5277    0.0000 O   0  0  0  0  0  0  0  0  0  0  0  0
  1  2  1  0
  2  3  1  0
  3  4  2  0
  4  5  1  0
  5  6  2  0
  6  7  1  0
  7  8  2  0
  8  9  1  0
  9 10  2  0
  4 11  1  0
 11 12  1  0
 12 13  2  0
 13 14  1  0
 14 15  1  0
 13 16  1  0
 16 17  1  0
 16 18  2  0
 18 19  1  0
 19 20  1  0
 19 21  2  0
 21 22  1  0
 22 23  2  0
 22  3  1  0
 10  5  1  0
 21 12  1  0
M  END
>  <identifier>  (246) 
CNP0321697.0

>  <canonical_smiles>  (246) 
COC1=C(C2=CC=CC=C2)OC2=C(OC)C(O)=CC(O)=C2C1=O

>  <standard_inchi>  (246) 
InChI=1S/C17H14O6/c1-21-15-11(19)8-10(18)12-13(20)17(22-2)14(23-16(12)15)9-6-4-3-5-7-9/h3-8,18-19H,1-2H3

>  <standard_inchi_key>  (246) 
OWQLBLNRUZULFV-UHFFFAOYSA-N

>  <name>  (246) 
Gnaphaliin

>  <iupac_name>  (246) 
5,7-dihydroxy-3,8-dimethoxy-2-phenyl-chromen-4-one

>  <annotation_level>  (246) 
5

>  <total_atom_count>  (246) 
37

>  <heavy_atom_count>  (246) 
23

>  <molecular_weight>  (246) 
314.29

>  <exact_molecular_weight>  (246) 
314.07904

>  <molecular_formula>  (246) 
C17H14O6

>  <alogp>  (246) 
2.89

>  <topological_polar_surface_area>  (246) 
89.13

>  <rotatable_bond_count>  (246) 
3

>  <hydrogen_bond_acceptors>  (246) 
6

>  <hydrogen_bond_donors>  (246) 
2

>  <hydrogen_bond_acceptors_lipinski>  (246) 
6

>  <hydrogen_bond_donors_lipinski>  (246) 
2

>  <lipinski_rule_of_five_violations>  (246) 
0

>  <aromatic_rings_count>  (246) 
3

>  <qed_drug_likeliness>  (246) 
0.77

>  <formal_charge>  (246) 
0

>  <fractioncsp3>  (246) 
0.12

>  <number_of_minimal_rings>  (246) 
3

>  <van_der_walls_volume>  (246) 
265.11

>  <contains_sugar>  (246) 
False

>  <contains_ring_sugars>  (246) 
False

>  <contains_linear_sugars>  (246) 
False

>  <murcko_framework>  (246) 
O1c2ccccc2CC=C1c3ccccc3

>  <np_likeness>  (246) 
1.42

>  <chemical_class>  (246) 
Flavonoids

>  <chemical_sub_class>  (246) 
O-methylated flavonoids

>  <chemical_super_class>  (246) 
Phenylpropanoids and polyketides

>  <direct_parent_classification>  (246) 
3-O-methylated flavonoids

>  <np_classifier_pathway>  (246) 
Shikimates and Phenylpropanoids

>  <np_classifier_superclass>  (246) 
Flavonoids

>  <np_classifier_class>  (246) 
Flavonols

>  <np_classifier_is_glycoside>  (246) 
False

>  <organisms>  (246) 
Achyrocline spp.|Amaranthus paniculatus|Ammodendron longiracemosum|Anaphalis margaritacea|Anaphalis velutina|Aplidium lobatum|Campanula kolenatiana|Gnaphalium Luteo|Gnaphalium liebmannii|Gnaphalium luteo-album|Gnaphalium microcephalum|Gnaphalium obtusifolium|Gnaphalium robustum|Gymnosperma glutinosum|Helichrysum aureum|Helichrysum bracteiferum|Helichrysum italicum|Helichrysum picardii|Limonium aureum|Nothofagus alessandri|Nothofagus spp.|Orthosiphon grandiflorus|Ozothamnus ericifolius|Ozothamnus purpurescens|Polyalthia fragrans|Pterocaulon lanatum|Rosellinia necatrix|Salvia nemorosa|Sorangium cellulosum|Stevia lemmoni|Woodsia scopulina

>  <collections>  (246) 
AnalytiCon Discovery NPs|Australian natural products|BIOFACQUIM|CMAUP (cCollective molecular activities of useful plants)|KNApSaCK|Latin America dataset|NPACT|NPASS|NPEdia|Super Natural II|TCMDB-Taiwan (Traditional Chinese Medicine database)|TCMID (Traditional Chinese Medicine Integrated Database)|TIPdb (database of Taiwan indigenous plants)|UNPD (Universal Natural Products Database)|VietHerb

>  <dois>  (246) 
10.1021/np800746j

>  <synonyms>  (246) 
33803-42-8|5|7-dihydroxy-3|8-dimethoxyflavone|5|7-dihydroxy-3|8-dimethoxy-2-phenylchromen-4-one|3-O-Methyl-8-methoxygalangin|Flavone + 2O + 2MeO|CHEMBL560724|MEGxp0_000457|SCHEMBL19267483|ACon1_000796|CHEBI:168044|DTXSID201318317|LMPK12113093|AKOS040735052|BRD-K86620082-001-01-6|5|7-Dihydroxy-3|8-dimethoxy-2-phenyl-4H-1-benzopyran-4-one|Gnaphaliin A|NPL90560-01|gnaphaliin

>  <cas>  (246) 
33803-42-8

$$$$

     RDKit          2D

 26 28  0  0  0  0  0  0  0  0999 V2000
   -1.8794   -3.3489    0.0000 C   0  0  0  0  0  0  0  0  0  0  0  0
   -0.8159   -2.2912    0.0000 O   0  0  0  0  0  0  0  0  0  0  0  0
   -1.2001   -0.8412    0.0000 C   0  0  0  0  0  0  0  0  0  0  0  0
   -0.1366    0.2165    0.0000 C   0  0  0  0  0  0  0  0  0  0  0  0
    1.3113   -0.1757    0.0000 C   0  0  0  0  0  0  0  0  0  0  0  0
    2.3748    0.8821    0.0000 C   0  0  0  0  0  0  0  0  0  0  0  0
    3.8226    0.4899    0.0000 O   0  0  0  0  0  0  0  0  0  0  0  0
    4.2069   -0.9601    0.0000 C   0  0  0  0  0  0  0  0  0  0  0  0
    3.1433   -2.0178    0.0000 O   0  0  0  0  0  0  0  0  0  0  0  0
    5.6547   -1.3523    0.0000 C   0  0  0  0  0  0  0  0  0  0  0  0
    6.0390   -2.8022    0.0000 C   0  0  0  0  0  0  0  0  0  0  0  0
    6.7183   -0.2945    0.0000 C   0  0  0  0  0  0  0  0  0  0  0  0
    1.9906    2.3320    0.0000 C   0  0  0  0  0  0  0  0  0  0  0  0
    2.1254    3.8259    0.0000 C   0  0  0  0  0  0  0  0  0  0  0  0
    3.4852    2.4587    0.0000 C   0  0  0  0  0  0  0  0  0  0  0  0
    0.5427    2.7242    0.0000 O   0  0  0  0  0  0  0  0  0  0  0  0
   -0.5208    1.6665    0.0000 C   0  0  0  0  0  0  0  0  0  0  0  0
   -1.9687    2.0586    0.0000 C   0  0  0  0  0  0  0  0  0  0  0  0
   -3.0322    1.0009    0.0000 C   0  0  0  0  0  0  0  0  0  0  0  0
   -2.6479   -0.4491    0.0000 C   0  0  0  0  0  0  0  0  0  0  0  0
   -3.7115   -1.5068    0.0000 C   0  0  0  0  0  0  0  0  0  0  0  0
   -3.3272   -2.9568    0.0000 O   0  0  0  0  0  0  0  0  0  0  0  0
   -5.1593   -1.1146    0.0000 C   0  0  0  0  0  0  0  0  0  0  0  0
   -5.5436    0.3353    0.0000 C   0  0  0  0  0  0  0  0  0  0  0  0
   -6.9914    0.7275    0.0000 C   0  0  0  0  0  0  0  0  0  0  0  0
   -4.4800    1.3931    0.0000 O   0  0  0  0  0  0  0  0  0  0  0  0
  1  2  1  0
  2  3  1  0
  3  4  2  0
  4  5  1  0
  5  6  1  0
  6  7  1  6
  7  8  1  0
  8  9  2  0
  8 10  1  0
 10 11  1  0
 10 12  1  0
  6 13  1  0
 13 14  1  0
 13 15  1  0
 13 16  1  0
 16 17  1  0
 17 18  2  0
 18 19  1  0
 19 20  2  0
 20 21  1  0
 21 22  2  0
 21 23  1  0
 23 24  2  0
 24 25  1  0
 24 26  1  0
 20  3  1  0
 17  4  1  0
 26 19  1  0
M  END
>  <identifier>  (247) 
CNP0192777.1

>  <canonical_smiles>  (247) 
COC1=C2C[C@@H](OC(=O)C(C)C)C(C)(C)OC2=CC2=C1C(=O)C=C(C)O2

>  <standard_inchi>  (247) 
InChI=1S/C20H24O6/c1-10(2)19(22)25-16-8-12-14(26-20(16,4)5)9-15-17(18(12)23-6)13(21)7-11(3)24-15/h7,9-10,16H,8H2,1-6H3/t16-/m1/s1

>  <standard_inchi_key>  (247) 
YLXXSWJDIFLXSG-MRXNPFEDSA-N

>  <name>  (247) 
[(3R)-5-methoxy-2,2,8-trimethyl-6-oxo-3,4-dihydropyrano[3,2-g]chromen-3-yl] 2-methylpropanoate

>  <iupac_name>  (247) 
[(3~{R})-5-methoxy-2,2,8-trimethyl-6-oxo-3,4-dihydropyrano[3,2-g]chromen-3-yl] 2-methylpropanoate

>  <annotation_level>  (247) 
5

>  <total_atom_count>  (247) 
50

>  <heavy_atom_count>  (247) 
26

>  <molecular_weight>  (247) 
360.41

>  <exact_molecular_weight>  (247) 
360.15729

>  <molecular_formula>  (247) 
C20H24O6

>  <alogp>  (247) 
3.39

>  <topological_polar_surface_area>  (247) 
74.97

>  <rotatable_bond_count>  (247) 
3

>  <hydrogen_bond_acceptors>  (247) 
6

>  <hydrogen_bond_donors>  (247) 
0

>  <hydrogen_bond_acceptors_lipinski>  (247) 
6

>  <hydrogen_bond_donors_lipinski>  (247) 
0

>  <lipinski_rule_of_five_violations>  (247) 
0

>  <aromatic_rings_count>  (247) 
2

>  <qed_drug_likeliness>  (247) 
0.78

>  <formal_charge>  (247) 
0

>  <fractioncsp3>  (247) 
0.50

>  <number_of_minimal_rings>  (247) 
3

>  <van_der_walls_volume>  (247) 
327.47

>  <contains_sugar>  (247) 
False

>  <contains_ring_sugars>  (247) 
False

>  <contains_linear_sugars>  (247) 
False

>  <murcko_framework>  (247) 
O1C=CCc2cc3c(OCCC3)cc12

>  <np_likeness>  (247) 
2.39

>  <chemical_class>  (247) 
Benzopyrans

>  <chemical_sub_class>  (247) 
1-benzopyrans

>  <chemical_super_class>  (247) 
Organoheterocyclic compounds

>  <direct_parent_classification>  (247) 
Pyranochromenes

>  <np_classifier_pathway>  (247) 
Polyketides

>  <np_classifier_superclass>  (247) 
Chromanes

>  <np_classifier_class>  (247) 
Chromones

>  <np_classifier_is_glycoside>  (247) 
False

>  <organisms>  (247) 
Prionosciadium watsoni

>  <collections>  (247) 
BIOFACQUIM|CMAUP (cCollective molecular activities of useful plants)|Latin America dataset|NPASS|Super Natural II

>  <dois>  (247) 
10.1021/np010448t

>  <synonyms>  (247) 
CHEMBL518222|Isobutyric acid (3R)-5-methoxy-3 4-dihydro-2 2 8-trimethyl-6-oxo-2H 6H-benzo1 2-b:5 4-b'dipyran-3-yl ester

>  <cas>  (247) 
nan

$$$$

     RDKit          2D

 23 25  0  0  0  0  0  0  0  0999 V2000
   -6.0666   -1.0520    0.0000 C   0  0  0  0  0  0  0  0  0  0  0  0
   -4.6669   -1.5913    0.0000 O   0  0  0  0  0  0  0  0  0  0  0  0
   -3.4999   -0.6488    0.0000 C   0  0  0  0  0  0  0  0  0  0  0  0
   -3.7327    0.8330    0.0000 C   0  0  0  0  0  0  0  0  0  0  0  0
   -2.5658    1.7755    0.0000 C   0  0  0  0  0  0  0  0  0  0  0  0
   -2.7986    3.2573    0.0000 O   0  0  0  0  0  0  0  0  0  0  0  0
   -1.1661    1.2362    0.0000 C   0  0  0  0  0  0  0  0  0  0  0  0
    0.0008    2.1787    0.0000 C   0  0  0  0  0  0  0  0  0  0  0  0
   -0.2320    3.6605    0.0000 O   0  0  0  0  0  0  0  0  0  0  0  0
    1.4005    1.6394    0.0000 C   0  0  0  0  0  0  0  0  0  0  0  0
    2.5674    2.5819    0.0000 O   0  0  0  0  0  0  0  0  0  0  0  0
    1.6333    0.1575    0.0000 C   0  0  0  0  0  0  0  0  0  0  0  0
    3.0329   -0.3818    0.0000 C   0  0  0  0  0  0  0  0  0  0  0  0
    3.2657   -1.8636    0.0000 C   0  0  0  0  0  0  0  0  0  0  0  0
    4.6654   -2.4029    0.0000 C   0  0  0  0  0  0  0  0  0  0  0  0
    5.8323   -1.4604    0.0000 C   0  0  0  0  0  0  0  0  0  0  0  0
    5.5995    0.0214    0.0000 C   0  0  0  0  0  0  0  0  0  0  0  0
    4.1999    0.5607    0.0000 C   0  0  0  0  0  0  0  0  0  0  0  0
    0.4663   -0.7850    0.0000 O   0  0  0  0  0  0  0  0  0  0  0  0
   -0.9333   -0.2456    0.0000 C   0  0  0  0  0  0  0  0  0  0  0  0
   -2.1003   -1.1881    0.0000 C   0  0  0  0  0  0  0  0  0  0  0  0
   -1.8675   -2.6700    0.0000 O   0  0  0  0  0  0  0  0  0  0  0  0
   -3.0344   -3.6125    0.0000 C   0  0  0  0  0  0  0  0  0  0  0  0
  1  2  1  0
  2  3  1  0
  3  4  2  0
  4  5  1  0
  5  6  1  0
  5  7  2  0
  7  8  1  0
  8  9  2  0
  8 10  1  0
 10 11  1  0
 10 12  2  0
 12 13  1  0
 13 14  2  0
 14 15  1  0
 15 16  2  0
 16 17  1  0
 17 18  2  0
 12 19  1  0
 19 20  1  0
 20 21  2  0
 21 22  1  0
 22 23  1  0
 21  3  1  0
 20  7  1  0
 18 13  1  0
M  END
>  <identifier>  (248) 
CNP0311082.0

>  <canonical_smiles>  (248) 
COC1=CC(O)=C2C(=O)C(O)=C(C3=CC=CC=C3)OC2=C1OC

>  <standard_inchi>  (248) 
InChI=1S/C17H14O6/c1-21-11-8-10(18)12-13(19)14(20)15(9-6-4-3-5-7-9)23-17(12)16(11)22-2/h3-8,18,20H,1-2H3

>  <standard_inchi_key>  (248) 
CILMBWBPHLLNEH-UHFFFAOYSA-N

>  <name>  (248) 
GNAPHALIIN B

>  <iupac_name>  (248) 
3,5-dihydroxy-7,8-dimethoxy-2-phenyl-chromen-4-one

>  <annotation_level>  (248) 
5

>  <total_atom_count>  (248) 
37

>  <heavy_atom_count>  (248) 
23

>  <molecular_weight>  (248) 
314.29

>  <exact_molecular_weight>  (248) 
314.07904

>  <molecular_formula>  (248) 
C17H14O6

>  <alogp>  (248) 
2.89

>  <topological_polar_surface_area>  (248) 
89.13

>  <rotatable_bond_count>  (248) 
3

>  <hydrogen_bond_acceptors>  (248) 
6

>  <hydrogen_bond_donors>  (248) 
2

>  <hydrogen_bond_acceptors_lipinski>  (248) 
6

>  <hydrogen_bond_donors_lipinski>  (248) 
2

>  <lipinski_rule_of_five_violations>  (248) 
0

>  <aromatic_rings_count>  (248) 
3

>  <qed_drug_likeliness>  (248) 
0.77

>  <formal_charge>  (248) 
0

>  <fractioncsp3>  (248) 
0.12

>  <number_of_minimal_rings>  (248) 
3

>  <van_der_walls_volume>  (248) 
264.61

>  <contains_sugar>  (248) 
False

>  <contains_ring_sugars>  (248) 
False

>  <contains_linear_sugars>  (248) 
False

>  <murcko_framework>  (248) 
O1c2ccccc2CC=C1c3ccccc3

>  <np_likeness>  (248) 
1.36

>  <chemical_class>  (248) 
Flavonoids

>  <chemical_sub_class>  (248) 
Flavones

>  <chemical_super_class>  (248) 
Phenylpropanoids and polyketides

>  <direct_parent_classification>  (248) 
Flavonols

>  <np_classifier_pathway>  (248) 
Shikimates and Phenylpropanoids

>  <np_classifier_superclass>  (248) 
Flavonoids

>  <np_classifier_class>  (248) 
Flavonols

>  <np_classifier_is_glycoside>  (248) 
False

>  <organisms>  (248) 
Achyrocline bogotensis (HBK.) DC.|Achyrocline tomentosa|Campanula kolenatiana|Gnaphalium liebmannii|Helichrysum italicum|Limonium aureum|Mussaenda shikokiana|Neocallitropsis pancheri|Nothofagus solandri|Odixia angusta|Orthosiphon grandiflorus|Ozothamnus ledifolius|Primula imperialis|Rostellularia procumbens|Stevia lemmoni|Streptomyces albosporeus|Trametes cinnabarina|Woodsia scopulina

>  <collections>  (248) 
Australian natural products|BIOFACQUIM|KNApSaCK|Latin America dataset|NPASS|NPEdia|Super Natural II|UNPD (Universal Natural Products Database)

>  <dois>  (248) 
10.1021/np800746j|10.1515/znc-1997-9-1003

>  <synonyms>  (248) 
3|5-Dihydroxy-7|8-dimethoxyflavone|22399-73-1|3|5-dihydroxy-7|8-dimethoxy-2-phenylchromen-4-one|5-Hydroxy-7|8-dimethoxyflavonol|Flavone| 3|5-dihydroxy-7|8-dimethoxy-|CHEMBL549907|DTXSID50176926|CHEBI:175011|LMPK12113094|3|5-Dihydroxy-7|8-dimethoxy-2-phenyl-4H-1-benzopyran-4-one|4H-1-Benzopyran-4-one| 3|5-dihydroxy-7|8-dimethoxy-2-phenyl-|Gnaphaliin B

>  <cas>  (248) 
22399-73-1

$$$$

     RDKit          2D

 19 21  0  0  0  0  0  0  0  0999 V2000
   -1.4164    3.3823    0.0000 C   0  0  0  0  0  0  0  0  0  0  0  0
   -0.7748    2.0264    0.0000 O   0  0  0  0  0  0  0  0  0  0  0  0
   -1.6283    0.7928    0.0000 C   0  0  0  0  0  0  0  0  0  0  0  0
   -3.1279    0.7582    0.0000 C   0  0  0  0  0  0  0  0  0  0  0  0
   -3.5584   -0.6787    0.0000 C   0  0  0  0  0  0  0  0  0  0  0  0
   -4.9739   -1.1750    0.0000 O   0  0  0  0  0  0  0  0  0  0  0  0
   -2.3248   -1.5321    0.0000 C   0  0  0  0  0  0  0  0  0  0  0  0
   -1.1320   -0.6227    0.0000 C   0  0  0  0  0  0  0  0  0  0  0  0
   -0.7863   -2.0823    0.0000 C   0  0  0  0  0  0  0  0  0  0  0  0
    0.6506   -2.5128    0.0000 C   0  0  0  0  0  0  0  0  0  0  0  0
    1.7418   -1.4837    0.0000 C   0  0  0  0  0  0  0  0  0  0  0  0
    3.1787   -1.9142    0.0000 C   0  0  0  0  0  0  0  0  0  0  0  0
    4.2700   -0.8850    0.0000 C   0  0  0  0  0  0  0  0  0  0  0  0
    3.9244    0.5746    0.0000 C   0  0  0  0  0  0  0  0  0  0  0  0
    2.4875    1.0051    0.0000 C   0  0  0  0  0  0  0  0  0  0  0  0
    2.1418    2.4647    0.0000 O   0  0  0  0  0  0  0  0  0  0  0  0
    1.3962   -0.0240    0.0000 C   0  0  0  0  0  0  0  0  0  0  0  0
   -0.0407    0.4065    0.0000 C   0  0  0  0  0  0  0  0  0  0  0  0
   -0.0277    1.4999    0.0000 O   0  0  0  0  0  0  0  0  0  0  0  0
  1  2  1  0
  2  3  1  0
  3  4  2  0
  4  5  1  0
  5  6  2  0
  5  7  1  0
  8  7  1  6
  8  9  1  0
  9 10  1  0
 10 11  1  0
 11 12  2  0
 12 13  1  0
 13 14  2  0
 14 15  1  0
 15 16  1  0
 15 17  2  0
 17 18  1  0
 18 19  2  0
  8  3  1  0
 17 11  1  0
 18  8  1  0
M  END
>  <identifier>  (249) 
CNP0314273.1

>  <canonical_smiles>  (249) 
COC1=CC(=O)C[C@]12CCC1=CC=CC(O)=C1C2=O

>  <standard_inchi>  (249) 
InChI=1S/C15H14O4/c1-19-12-7-10(16)8-15(12)6-5-9-3-2-4-11(17)13(9)14(15)18/h2-4,7,17H,5-6,8H2,1H3/t15-/m1/s1

>  <standard_inchi_key>  (249) 
HMYHQSWJLABPMD-OAHLLOKOSA-N

>  <name>  (249) 
nan

>  <iupac_name>  (249) 
(4~{R})-8'-hydroxy-3-methoxy-spiro[cyclopent-2-ene-4,2'-tetralin]-1,1'-dione

>  <annotation_level>  (249) 
5

>  <total_atom_count>  (249) 
33

>  <heavy_atom_count>  (249) 
19

>  <molecular_weight>  (249) 
258.27

>  <exact_molecular_weight>  (249) 
258.08921

>  <molecular_formula>  (249) 
C15H14O4

>  <alogp>  (249) 
2.01

>  <topological_polar_surface_area>  (249) 
63.60

>  <rotatable_bond_count>  (249) 
1

>  <hydrogen_bond_acceptors>  (249) 
4

>  <hydrogen_bond_donors>  (249) 
1

>  <hydrogen_bond_acceptors_lipinski>  (249) 
4

>  <hydrogen_bond_donors_lipinski>  (249) 
1

>  <lipinski_rule_of_five_violations>  (249) 
0

>  <aromatic_rings_count>  (249) 
1

>  <qed_drug_likeliness>  (249) 
0.84

>  <formal_charge>  (249) 
0

>  <fractioncsp3>  (249) 
0.33

>  <number_of_minimal_rings>  (249) 
3

>  <van_der_walls_volume>  (249) 
227.57

>  <contains_sugar>  (249) 
False

>  <contains_ring_sugars>  (249) 
False

>  <contains_linear_sugars>  (249) 
False

>  <murcko_framework>  (249) 
c1ccc2c(c1)CCC3(C=CCC3)C2

>  <np_likeness>  (249) 
2.01

>  <chemical_class>  (249) 
Tetralins

>  <chemical_sub_class>  (249) 
Tetralins

>  <chemical_super_class>  (249) 
Benzenoids

>  <direct_parent_classification>  (249) 
Tetralins

>  <np_classifier_pathway>  (249) 
nan

>  <np_classifier_superclass>  (249) 
nan

>  <np_classifier_class>  (249) 
nan

>  <np_classifier_is_glycoside>  (249) 
False

>  <organisms>  (249) 
Nidema boothii

>  <collections>  (249) 
BIOFACQUIM

>  <dois>  (249) 
10.1021/np030303h

>  <synonyms>  (249) 
Nidemone

>  <cas>  (249) 
nan

$$$$

     RDKit          2D

 22 23  0  0  0  0  0  0  0  0999 V2000
    5.5779   -2.8328    0.0000 C   0  0  0  0  0  0  0  0  0  0  0  0
    5.9248   -1.3735    0.0000 O   0  0  0  0  0  0  0  0  0  0  0  0
    4.8345   -0.3434    0.0000 C   0  0  0  0  0  0  0  0  0  0  0  0
    3.3972   -0.7726    0.0000 C   0  0  0  0  0  0  0  0  0  0  0  0
    2.3069    0.2575    0.0000 C   0  0  0  0  0  0  0  0  0  0  0  0
    0.8696   -0.1717    0.0000 C   0  0  0  0  0  0  0  0  0  0  0  0
   -0.2208    0.8584    0.0000 C   0  0  0  0  0  0  0  0  0  0  0  0
   -1.6581    0.4292    0.0000 C   0  0  0  0  0  0  0  0  0  0  0  0
   -2.7484    1.4593    0.0000 C   0  0  0  0  0  0  0  0  0  0  0  0
   -4.1857    1.0301    0.0000 C   0  0  0  0  0  0  0  0  0  0  0  0
   -5.2760    2.0602    0.0000 O   0  0  0  0  0  0  0  0  0  0  0  0
   -4.9291    3.5196    0.0000 C   0  0  0  0  0  0  0  0  0  0  0  0
   -4.5326   -0.4292    0.0000 C   0  0  0  0  0  0  0  0  0  0  0  0
   -5.9699   -0.8584    0.0000 O   0  0  0  0  0  0  0  0  0  0  0  0
   -3.4423   -1.4593    0.0000 C   0  0  0  0  0  0  0  0  0  0  0  0
   -3.7892   -2.9187    0.0000 O   0  0  0  0  0  0  0  0  0  0  0  0
   -2.6988   -3.9488    0.0000 C   0  0  0  0  0  0  0  0  0  0  0  0
   -2.0050   -1.0301    0.0000 C   0  0  0  0  0  0  0  0  0  0  0  0
    2.6538    1.7169    0.0000 C   0  0  0  0  0  0  0  0  0  0  0  0
    4.0911    2.1461    0.0000 C   0  0  0  0  0  0  0  0  0  0  0  0
    5.1814    1.1160    0.0000 C   0  0  0  0  0  0  0  0  0  0  0  0
    6.6187    1.5452    0.0000 O   0  0  0  0  0  0  0  0  0  0  0  0
  1  2  1  0
  2  3  1  0
  3  4  2  0
  4  5  1  0
  5  6  1  0
  6  7  1  0
  7  8  1  0
  8  9  2  0
  9 10  1  0
 10 11  1  0
 11 12  1  0
 10 13  2  0
 13 14  1  0
 13 15  1  0
 15 16  1  0
 16 17  1  0
 15 18  2  0
  5 19  2  0
 19 20  1  0
 20 21  2  0
 21 22  1  0
 21  3  1  0
 18  8  1  0
M  END
>  <identifier>  (250) 
CNP0146248.0

>  <canonical_smiles>  (250) 
COC1=CC(CCC2=CC(OC)=C(O)C(OC)=C2)=CC=C1O

>  <standard_inchi>  (250) 
InChI=1S/C17H20O5/c1-20-14-8-11(6-7-13(14)18)4-5-12-9-15(21-2)17(19)16(10-12)22-3/h6-10,18-19H,4-5H2,1-3H3

>  <standard_inchi_key>  (250) 
YTRAYUIKLRABOQ-UHFFFAOYSA-N

>  <name>  (250) 
Dendrophenol

>  <iupac_name>  (250) 
4-[2-(4-hydroxy-3-methoxy-phenyl)ethyl]-2,6-dimethoxy-phenol

>  <annotation_level>  (250) 
5

>  <total_atom_count>  (250) 
42

>  <heavy_atom_count>  (250) 
22

>  <molecular_weight>  (250) 
304.34

>  <exact_molecular_weight>  (250) 
304.13107

>  <molecular_formula>  (250) 
C17H20O5

>  <alogp>  (250) 
2.91

>  <topological_polar_surface_area>  (250) 
68.15

>  <rotatable_bond_count>  (250) 
6

>  <hydrogen_bond_acceptors>  (250) 
5

>  <hydrogen_bond_donors>  (250) 
2

>  <hydrogen_bond_acceptors_lipinski>  (250) 
5

>  <hydrogen_bond_donors_lipinski>  (250) 
2

>  <lipinski_rule_of_five_violations>  (250) 
0

>  <aromatic_rings_count>  (250) 
2

>  <qed_drug_likeliness>  (250) 
0.86

>  <formal_charge>  (250) 
0

>  <fractioncsp3>  (250) 
0.29

>  <number_of_minimal_rings>  (250) 
2

>  <van_der_walls_volume>  (250) 
282.40

>  <contains_sugar>  (250) 
False

>  <contains_ring_sugars>  (250) 
False

>  <contains_linear_sugars>  (250) 
False

>  <murcko_framework>  (250) 
c1ccc(cc1)CCc2ccccc2

>  <np_likeness>  (250) 
0.66

>  <chemical_class>  (250) 
Stilbenes

>  <chemical_sub_class>  (250) 
Stilbenes

>  <chemical_super_class>  (250) 
Phenylpropanoids and polyketides

>  <direct_parent_classification>  (250) 
Stilbenes

>  <np_classifier_pathway>  (250) 
Shikimates and Phenylpropanoids

>  <np_classifier_superclass>  (250) 
Stilbenoids

>  <np_classifier_class>  (250) 
Monomeric stilbenes

>  <np_classifier_is_glycoside>  (250) 
False

>  <organisms>  (250) 
Axinyssa tethyoides|Callophycus serratus|Corydalis conspersa|Cymbidium aloifolium|Cyperus pilosus|Dendrobium amoenum|Dendrobium candidum|Dendrobium catenatum|Dendrobium chrysanthum|Dendrobium chrysotoxum|Dendrobium densiflorum|Dendrobium densiflorum Lindl.ex.Wall.|Dendrobium fimbriatum|Dendrobium loddigesii|Dendrobium moschatum|Dendrobium nobile|Gynochthodes parvifolia|Lebeckia plukenetiana|Ligustrum ovalifolium|Mespilus germanica|Mikania luetzelburgii|Nidema boothii|Physocarpus intermedius|Pittosporum brevicalyx|Polyporus confluens|Saraca asoca|Securigera securidaca|Sideritis grandiflora|Solanum euacanthum|Ungernia victoris

>  <collections>  (250) 
BIOFACQUIM|CMAUP (cCollective molecular activities of useful plants)|KNApSaCK|Latin America dataset|NPASS|NPCARE|NPEdia|Phyto4Health|Super Natural II|TCMDB-Taiwan (Traditional Chinese Medicine database)|TCMID (Traditional Chinese Medicine Integrated Database)|UNPD (Universal Natural Products Database)|VietHerb|ZINC NP

>  <dois>  (250) 
10.1021/np030303h

>  <synonyms>  (250) 
108853-14-1|Moscatilin|4-2-(4-hydroxy-3-methoxyphenyl)ethyl-2|6-dimethoxyphenol|4|4'-Dihydroxy-3|3'|5-trimethoxybibenzyl|Phenol| 4-2-(4-hydroxy-3-methoxyphenyl)ethyl-2|6-dimethoxy-|Aloifol II|CHEMBL374047|SCHEMBL18563068|DTXSID80148752|YTRAYUIKLRABOQ-UHFFFAOYSA-N|EX-A6749|HY-N6031|AKOS028108609|MS-24394|CS-0032202|Dibenzyl| 4|4'-dihydroxy-3|3'|5-trimethoxy|4 pound not4'-Dihydroxy-3 pound not3' pound not5-trimethoxybibenzyl

>  <cas>  (250) 
108853-14-1

$$$$

     RDKit          2D

 19 21  0  0  0  0  0  0  0  0999 V2000
   -5.4708    1.4164    0.0000 C   0  0  0  0  0  0  0  0  0  0  0  0
   -4.7001    0.1296    0.0000 O   0  0  0  0  0  0  0  0  0  0  0  0
   -3.2003    0.1537    0.0000 C   0  0  0  0  0  0  0  0  0  0  0  0
   -2.4712    1.4646    0.0000 C   0  0  0  0  0  0  0  0  0  0  0  0
   -0.9714    1.4887    0.0000 C   0  0  0  0  0  0  0  0  0  0  0  0
   -0.2424    2.7997    0.0000 O   0  0  0  0  0  0  0  0  0  0  0  0
   -0.2006    0.2019    0.0000 C   0  0  0  0  0  0  0  0  0  0  0  0
   -0.9297   -1.1090    0.0000 C   0  0  0  0  0  0  0  0  0  0  0  0
   -0.1589   -2.3958    0.0000 C   0  0  0  0  0  0  0  0  0  0  0  0
    1.3409   -2.3717    0.0000 C   0  0  0  0  0  0  0  0  0  0  0  0
    2.0699   -1.0608    0.0000 C   0  0  0  0  0  0  0  0  0  0  0  0
    3.5698   -1.0367    0.0000 C   0  0  0  0  0  0  0  0  0  0  0  0
    4.2988    0.2742    0.0000 C   0  0  0  0  0  0  0  0  0  0  0  0
    5.7986    0.2984    0.0000 O   0  0  0  0  0  0  0  0  0  0  0  0
    3.5280    1.5611    0.0000 C   0  0  0  0  0  0  0  0  0  0  0  0
    2.0282    1.5369    0.0000 C   0  0  0  0  0  0  0  0  0  0  0  0
    1.2992    0.2260    0.0000 C   0  0  0  0  0  0  0  0  0  0  0  0
   -2.4295   -1.1331    0.0000 C   0  0  0  0  0  0  0  0  0  0  0  0
   -3.1585   -2.4440    0.0000 O   0  0  0  0  0  0  0  0  0  0  0  0
  1  2  1  0
  2  3  1  0
  3  4  2  0
  4  5  1  0
  5  6  2  0
  5  7  1  0
  7  8  2  0
  8  9  1  0
  9 10  1  0
 10 11  1  0
 11 12  2  0
 12 13  1  0
 13 14  1  0
 13 15  2  0
 15 16  1  0
 16 17  2  0
  8 18  1  0
 18 19  2  0
 18  3  1  0
 17  7  1  0
 17 11  1  0
M  END
>  <identifier>  (251) 
CNP0116963.0

>  <canonical_smiles>  (251) 
COC1=CC(=O)C2=C(CCC3=CC(O)=CC=C23)C1=O

>  <standard_inchi>  (251) 
InChI=1S/C15H12O4/c1-19-13-7-12(17)14-10-5-3-9(16)6-8(10)2-4-11(14)15(13)18/h3,5-7,16H,2,4H2,1H3

>  <standard_inchi_key>  (251) 
SBMILRCXQPFDME-UHFFFAOYSA-N

>  <name>  (251) 
ephemeranthoquinone

>  <iupac_name>  (251) 
7-hydroxy-2-methoxy-9,10-dihydrophenanthrene-1,4-dione

>  <annotation_level>  (251) 
5

>  <total_atom_count>  (251) 
31

>  <heavy_atom_count>  (251) 
19

>  <molecular_weight>  (251) 
256.26

>  <exact_molecular_weight>  (251) 
256.07356

>  <molecular_formula>  (251) 
C15H12O4

>  <alogp>  (251) 
1.77

>  <topological_polar_surface_area>  (251) 
63.60

>  <rotatable_bond_count>  (251) 
1

>  <hydrogen_bond_acceptors>  (251) 
4

>  <hydrogen_bond_donors>  (251) 
1

>  <hydrogen_bond_acceptors_lipinski>  (251) 
4

>  <hydrogen_bond_donors_lipinski>  (251) 
1

>  <lipinski_rule_of_five_violations>  (251) 
0

>  <aromatic_rings_count>  (251) 
1

>  <qed_drug_likeliness>  (251) 
0.78

>  <formal_charge>  (251) 
0

>  <fractioncsp3>  (251) 
0.20

>  <number_of_minimal_rings>  (251) 
3

>  <van_der_walls_volume>  (251) 
220.69

>  <contains_sugar>  (251) 
False

>  <contains_ring_sugars>  (251) 
False

>  <contains_linear_sugars>  (251) 
False

>  <murcko_framework>  (251) 
c1ccc2c(c1)C3=C(CC=CC3)CC2

>  <np_likeness>  (251) 
1.97

>  <chemical_class>  (251) 
Phenanthrenes and derivatives

>  <chemical_sub_class>  (251) 
Phenanthrenes and derivatives

>  <chemical_super_class>  (251) 
Benzenoids

>  <direct_parent_classification>  (251) 
Phenanthrenes and derivatives

>  <np_classifier_pathway>  (251) 
Shikimates and Phenylpropanoids

>  <np_classifier_superclass>  (251) 
Phenanthrenoids

>  <np_classifier_class>  (251) 
Phenanthrenes

>  <np_classifier_is_glycoside>  (251) 
False

>  <organisms>  (251) 
Axinyssa tethyoides|Cyperus pilosus|Ephemerantha lonchophylla HOOK.f.P.F.HUNT et SUMMERH|Lebeckia plukenetiana|Nidema boothii|Physocarpus intermedius|Polyporus confluens|Saraca asoca|Securigera securidaca|Spiranthes sinensis

>  <collections>  (251) 
Australian natural products|BIOFACQUIM|CMAUP (cCollective molecular activities of useful plants)|KNApSaCK|Latin America dataset|NPASS|Super Natural II|UNPD (Universal Natural Products Database)

>  <dois>  (251) 
10.1021/acs.jafc.9b01117|10.1021/np030303h

>  <synonyms>  (251) 
CHEMBL472431|Ephemeranthoquinone

>  <cas>  (251) 
nan

$$$$

     RDKit          2D

 20 22  0  0  0  0  0  0  0  0999 V2000
   -5.2900    1.7940    0.0000 C   0  0  0  0  0  0  0  0  0  0  0  0
   -4.6303    0.4468    0.0000 O   0  0  0  0  0  0  0  0  0  0  0  0
   -3.1338    0.3445    0.0000 C   0  0  0  0  0  0  0  0  0  0  0  0
   -2.2969    1.5893    0.0000 C   0  0  0  0  0  0  0  0  0  0  0  0
   -0.8004    1.4870    0.0000 C   0  0  0  0  0  0  0  0  0  0  0  0
   -0.1408    0.1398    0.0000 C   0  0  0  0  0  0  0  0  0  0  0  0
    1.3557    0.0375    0.0000 C   0  0  0  0  0  0  0  0  0  0  0  0
    2.0154   -1.3097    0.0000 C   0  0  0  0  0  0  0  0  0  0  0  0
    3.5119   -1.4120    0.0000 C   0  0  0  0  0  0  0  0  0  0  0  0
    4.3487   -0.1671    0.0000 C   0  0  0  0  0  0  0  0  0  0  0  0
    5.8452   -0.2694    0.0000 O   0  0  0  0  0  0  0  0  0  0  0  0
    3.6891    1.1800    0.0000 C   0  0  0  0  0  0  0  0  0  0  0  0
    2.1926    1.2824    0.0000 C   0  0  0  0  0  0  0  0  0  0  0  0
    1.5329    2.6295    0.0000 C   0  0  0  0  0  0  0  0  0  0  0  0
    0.0364    2.7319    0.0000 C   0  0  0  0  0  0  0  0  0  0  0  0
   -0.9777   -1.1050    0.0000 C   0  0  0  0  0  0  0  0  0  0  0  0
   -0.3180   -2.4522    0.0000 O   0  0  0  0  0  0  0  0  0  0  0  0
   -1.1549   -3.6970    0.0000 C   0  0  0  0  0  0  0  0  0  0  0  0
   -2.4742   -1.0027    0.0000 C   0  0  0  0  0  0  0  0  0  0  0  0
   -3.3110   -2.2476    0.0000 O   0  0  0  0  0  0  0  0  0  0  0  0
  1  2  1  0
  2  3  1  0
  3  4  2  0
  4  5  1  0
  5  6  2  0
  6  7  1  0
  7  8  2  0
  8  9  1  0
  9 10  2  0
 10 11  1  0
 10 12  1  0
 12 13  2  0
 13 14  1  0
 14 15  1  0
  6 16  1  0
 16 17  1  0
 17 18  1  0
 16 19  2  0
 19 20  1  0
 19  3  1  0
 15  5  1  0
 13  7  1  0
M  END
>  <identifier>  (252) 
CNP0186595.0

>  <canonical_smiles>  (252) 
COC1=CC2=C(C3=CC=C(O)C=C3CC2)C(OC)=C1O

>  <standard_inchi>  (252) 
InChI=1S/C16H16O4/c1-19-13-8-10-4-3-9-7-11(17)5-6-12(9)14(10)16(20-2)15(13)18/h5-8,17-18H,3-4H2,1-2H3

>  <standard_inchi_key>  (252) 
SOHTUOALNFQEMJ-UHFFFAOYSA-N

>  <name>  (252) 
Flavanthridin

>  <iupac_name>  (252) 
5,7-dimethoxy-9,10-dihydrophenanthrene-2,6-diol

>  <annotation_level>  (252) 
5

>  <total_atom_count>  (252) 
36

>  <heavy_atom_count>  (252) 
20

>  <molecular_weight>  (252) 
272.3

>  <exact_molecular_weight>  (252) 
272.10486

>  <molecular_formula>  (252) 
C16H16O4

>  <alogp>  (252) 
2.88

>  <topological_polar_surface_area>  (252) 
58.92

>  <rotatable_bond_count>  (252) 
2

>  <hydrogen_bond_acceptors>  (252) 
4

>  <hydrogen_bond_donors>  (252) 
2

>  <hydrogen_bond_acceptors_lipinski>  (252) 
4

>  <hydrogen_bond_donors_lipinski>  (252) 
2

>  <lipinski_rule_of_five_violations>  (252) 
0

>  <aromatic_rings_count>  (252) 
2

>  <qed_drug_likeliness>  (252) 
0.88

>  <formal_charge>  (252) 
0

>  <fractioncsp3>  (252) 
0.25

>  <number_of_minimal_rings>  (252) 
3

>  <van_der_walls_volume>  (252) 
244.01

>  <contains_sugar>  (252) 
False

>  <contains_ring_sugars>  (252) 
False

>  <contains_linear_sugars>  (252) 
False

>  <murcko_framework>  (252) 
c1ccc2c(c1)-c3ccccc3CC2

>  <np_likeness>  (252) 
1.52

>  <chemical_class>  (252) 
Phenanthrenes and derivatives

>  <chemical_sub_class>  (252) 
Phenanthrenes and derivatives

>  <chemical_super_class>  (252) 
Benzenoids

>  <direct_parent_classification>  (252) 
Phenanthrenes and derivatives

>  <np_classifier_pathway>  (252) 
Shikimates and Phenylpropanoids

>  <np_classifier_superclass>  (252) 
Phenanthrenoids

>  <np_classifier_class>  (252) 
Phenanthrenes

>  <np_classifier_is_glycoside>  (252) 
False

>  <organisms>  (252) 
Callophycus serratus|Corydalis conspersa|Dendrobium nobile|Ephemerantha lonchophylla HOOK.f. P.F.HUNT et SUMMERH|Eria flava|Eulophia nuda|Gynochthodes parvifolia|Ligustrum ovalifolium|Mespilus germanica|Mikania luetzelburgii|Nidema boothii|Pittosporum brevicalyx|Sideritis grandiflora|Solanum euacanthum|Ungernia victoris

>  <collections>  (252) 
BIOFACQUIM|CMAUP (cCollective molecular activities of useful plants)|KNApSaCK|Latin America dataset|NPASS|NPEdia|Phyto4Health|Super Natural II|UNPD (Universal Natural Products Database)

>  <dois>  (252) 
10.1021/acs.jnatprod.6b00252|10.1021/np030303h

>  <synonyms>  (252) 
CHEMBL1082453|3|7-dihydroxy-2|4-dimethoxy-9|10-dihydrophenanthrene|Ephemeranthol B

>  <cas>  (252) 
nan

$$$$

     RDKit          2D

 18 20  0  0  0  0  0  0  0  0999 V2000
   -5.7152    0.9257    0.0000 C   0  0  0  0  0  0  0  0  0  0  0  0
   -4.8656   -0.3105    0.0000 O   0  0  0  0  0  0  0  0  0  0  0  0
   -3.3703   -0.1928    0.0000 C   0  0  0  0  0  0  0  0  0  0  0  0
   -2.7245    1.1610    0.0000 C   0  0  0  0  0  0  0  0  0  0  0  0
   -1.2291    1.2787    0.0000 C   0  0  0  0  0  0  0  0  0  0  0  0
   -0.5833    2.6326    0.0000 O   0  0  0  0  0  0  0  0  0  0  0  0
   -0.3795    0.0425    0.0000 C   0  0  0  0  0  0  0  0  0  0  0  0
   -1.0253   -1.3113    0.0000 C   0  0  0  0  0  0  0  0  0  0  0  0
   -2.5207   -1.4290    0.0000 C   0  0  0  0  0  0  0  0  0  0  0  0
   -0.1757   -2.5475    0.0000 C   0  0  0  0  0  0  0  0  0  0  0  0
    1.3197   -2.4299    0.0000 C   0  0  0  0  0  0  0  0  0  0  0  0
    1.9655   -1.0760    0.0000 C   0  0  0  0  0  0  0  0  0  0  0  0
    3.4608   -0.9583    0.0000 C   0  0  0  0  0  0  0  0  0  0  0  0
    4.1066    0.3956    0.0000 C   0  0  0  0  0  0  0  0  0  0  0  0
    5.6020    0.5132    0.0000 O   0  0  0  0  0  0  0  0  0  0  0  0
    3.2570    1.6318    0.0000 C   0  0  0  0  0  0  0  0  0  0  0  0
    1.7616    1.5141    0.0000 C   0  0  0  0  0  0  0  0  0  0  0  0
    1.1159    0.1602    0.0000 C   0  0  0  0  0  0  0  0  0  0  0  0
  1  2  1  0
  2  3  1  0
  3  4  2  0
  4  5  1  0
  5  6  1  0
  5  7  2  0
  7  8  1  0
  8  9  2  0
  8 10  1  0
 10 11  1  0
 11 12  1  0
 12 13  2  0
 13 14  1  0
 14 15  1  0
 14 16  2  0
 16 17  1  0
 17 18  2  0
  9  3  1  0
 18 12  1  0
 18  7  1  0
M  END
>  <identifier>  (253) 
CNP0146269.0

>  <canonical_smiles>  (253) 
COC1=CC(O)=C2C(=C1)CCC1=CC(O)=CC=C12

>  <standard_inchi>  (253) 
InChI=1S/C15H14O3/c1-18-12-7-10-3-2-9-6-11(16)4-5-13(9)15(10)14(17)8-12/h4-8,16-17H,2-3H2,1H3

>  <standard_inchi_key>  (253) 
RDKDIPDDUFMMMT-UHFFFAOYSA-N

>  <name>  (253) 
Lusianthridin

>  <iupac_name>  (253) 
7-methoxy-9,10-dihydrophenanthrene-2,5-diol

>  <annotation_level>  (253) 
5

>  <total_atom_count>  (253) 
32

>  <heavy_atom_count>  (253) 
18

>  <molecular_weight>  (253) 
242.27

>  <exact_molecular_weight>  (253) 
242.09429

>  <molecular_formula>  (253) 
C15H14O3

>  <alogp>  (253) 
2.87

>  <topological_polar_surface_area>  (253) 
49.69

>  <rotatable_bond_count>  (253) 
1

>  <hydrogen_bond_acceptors>  (253) 
3

>  <hydrogen_bond_donors>  (253) 
2

>  <hydrogen_bond_acceptors_lipinski>  (253) 
3

>  <hydrogen_bond_donors_lipinski>  (253) 
2

>  <lipinski_rule_of_five_violations>  (253) 
0

>  <aromatic_rings_count>  (253) 
2

>  <qed_drug_likeliness>  (253) 
0.81

>  <formal_charge>  (253) 
0

>  <fractioncsp3>  (253) 
0.20

>  <number_of_minimal_rings>  (253) 
3

>  <van_der_walls_volume>  (253) 
217.26

>  <contains_sugar>  (253) 
False

>  <contains_ring_sugars>  (253) 
False

>  <contains_linear_sugars>  (253) 
False

>  <murcko_framework>  (253) 
c1ccc2c(c1)-c3ccccc3CC2

>  <np_likeness>  (253) 
1.32

>  <chemical_class>  (253) 
Phenanthrenes and derivatives

>  <chemical_sub_class>  (253) 
Phenanthrenes and derivatives

>  <chemical_super_class>  (253) 
Benzenoids

>  <direct_parent_classification>  (253) 
Phenanthrenes and derivatives

>  <np_classifier_pathway>  (253) 
Shikimates and Phenylpropanoids

>  <np_classifier_superclass>  (253) 
Phenanthrenoids

>  <np_classifier_class>  (253) 
Phenanthrenes

>  <np_classifier_is_glycoside>  (253) 
False

>  <organisms>  (253) 
Amsonia tabernaemontana|Ariocarpus scapharostrus|Bletilla striata|Callophycus serratus|Clathria pyramida|Corydalis conspersa|Cremastra appendiculata|Dendrobium densiflorum|Dendrobium nobile|Dendrobium plicatile|Dioscorea bulbifera|Dioscorea opposita|Eulophia petersii|Gynochthodes parvifolia|Ligustrum ovalifolium|Luisia indivisa|Marah oregana|Mespilus germanica|Mikania luetzelburgii|Nidema boothii|Niphates digitalis|Pholidota Chinensis|Pholidota chinensis Lindl.|Pittosporum brevicalyx|Pleione bulbocodioides|Pleione yunnanensis|Pteris vittata|Sargassum siliquastrum|Sideritis grandiflora|Sisymbrium austriacum|Solanum euacanthum|Syzygium aromaticum|Thunia alba|Tolpis webbii|Ungernia victoris

>  <collections>  (253) 
BIOFACQUIM|CMAUP (cCollective molecular activities of useful plants)|ChEBI NPs|GNPS (Global Natural Products Social Molecular Networking)|KNApSaCK|Latin America dataset|NPASS|NPEdia|Phyto4Health|Super Natural II|TCMDB-Taiwan (Traditional Chinese Medicine database)|TCMID (Traditional Chinese Medicine Integrated Database)|TIPdb (database of Taiwan indigenous plants)|UNPD (Universal Natural Products Database)|VietHerb|ZINC NP

>  <dois>  (253) 
10.1021/acs.jnatprod.6b00252|10.1021/np030303h|10.1021/np070423f

>  <synonyms>  (253) 
87530-30-1|7-methoxy-9|10-dihydrophenanthrene-2|5-diol|CHEBI:28678|4|7-Dihydroxy-2-methoxy-9|10-dihydrophenanthrene|CHEMBL254187|SCHEMBL4743850|DTXSID50331917|BDBM246496|AKOS040760533|FS-7984|HY-121418|CS-0081991|D85190|Q27103833|2|5-Dihydroxy-7-methoxy-9|10-dihydrophenanthrene (14)|Lusianthridin

>  <cas>  (253) 
87530-30-1

$$$$

     RDKit          2D

 15 15  0  0  0  0  0  0  0  0999 V2000
   -5.6928   -0.0394    0.0000 C   0  0  0  0  0  0  0  0  0  0  0  0
   -4.3002    0.5179    0.0000 C   0  0  0  0  0  0  0  0  0  0  0  0
   -4.0865    2.0026    0.0000 O   0  0  0  0  0  0  0  0  0  0  0  0
   -3.1213   -0.4095    0.0000 O   0  0  0  0  0  0  0  0  0  0  0  0
   -1.7286    0.1478    0.0000 C   0  0  0  0  0  0  0  0  0  0  0  0
   -0.5497   -0.7796    0.0000 C   0  0  0  0  0  0  0  0  0  0  0  0
   -0.7634   -2.2643    0.0000 O   0  0  0  0  0  0  0  0  0  0  0  0
    0.8429   -0.2224    0.0000 C   0  0  0  0  0  0  0  0  0  0  0  0
    1.0566    1.2623    0.0000 C   0  0  0  0  0  0  0  0  0  0  0  0
    2.4493    1.8196    0.0000 C   0  0  0  0  0  0  0  0  0  0  0  0
    3.6282    0.8922    0.0000 C   0  0  0  0  0  0  0  0  0  0  0  0
    5.0209    1.4495    0.0000 C   0  0  0  0  0  0  0  0  0  0  0  0
    3.4145   -0.5925    0.0000 C   0  0  0  0  0  0  0  0  0  0  0  0
    2.0219   -1.1498    0.0000 C   0  0  0  0  0  0  0  0  0  0  0  0
    1.8082   -2.6345    0.0000 O   0  0  0  0  0  0  0  0  0  0  0  0
  1  2  1  0
  2  3  2  0
  2  4  1  0
  4  5  1  0
  5  6  1  0
  6  7  2  0
  6  8  1  0
  8  9  2  0
  9 10  1  0
 10 11  2  0
 11 12  1  0
 11 13  1  0
 13 14  2  0
 14 15  1  0
 14  8  1  0
M  END
>  <identifier>  (254) 
CNP0298155.0

>  <canonical_smiles>  (254) 
CC(=O)OCC(=O)C1=CC=C(C)C=C1O

>  <standard_inchi>  (254) 
InChI=1S/C11H12O4/c1-7-3-4-9(10(13)5-7)11(14)6-15-8(2)12/h3-5,13H,6H2,1-2H3

>  <standard_inchi_key>  (254) 
LHLJANTYAXQUPZ-UHFFFAOYSA-N

>  <name>  (254) 
hofmeisterin

>  <iupac_name>  (254) 
[2-(2-hydroxy-4-methyl-phenyl)-2-oxo-ethyl] acetate

>  <annotation_level>  (254) 
5

>  <total_atom_count>  (254) 
27

>  <heavy_atom_count>  (254) 
15

>  <molecular_weight>  (254) 
208.21

>  <exact_molecular_weight>  (254) 
208.07356

>  <molecular_formula>  (254) 
C11H12O4

>  <alogp>  (254) 
1.45

>  <topological_polar_surface_area>  (254) 
63.60

>  <rotatable_bond_count>  (254) 
3

>  <hydrogen_bond_acceptors>  (254) 
4

>  <hydrogen_bond_donors>  (254) 
1

>  <hydrogen_bond_acceptors_lipinski>  (254) 
4

>  <hydrogen_bond_donors_lipinski>  (254) 
1

>  <lipinski_rule_of_five_violations>  (254) 
0

>  <aromatic_rings_count>  (254) 
1

>  <qed_drug_likeliness>  (254) 
0.60

>  <formal_charge>  (254) 
0

>  <fractioncsp3>  (254) 
0.27

>  <number_of_minimal_rings>  (254) 
1

>  <van_der_walls_volume>  (254) 
188.58

>  <contains_sugar>  (254) 
False

>  <contains_ring_sugars>  (254) 
False

>  <contains_linear_sugars>  (254) 
False

>  <murcko_framework>  (254) 
c1ccccc1

>  <np_likeness>  (254) 
0.09

>  <chemical_class>  (254) 
Organooxygen compounds

>  <chemical_sub_class>  (254) 
Carbonyl compounds

>  <chemical_super_class>  (254) 
Organic oxygen compounds

>  <direct_parent_classification>  (254) 
Alkyl-phenylketones

>  <np_classifier_pathway>  (254) 
Shikimates and Phenylpropanoids

>  <np_classifier_superclass>  (254) 
Phenolic acids (C6-C1)

>  <np_classifier_class>  (254) 
Simple phenolic acids

>  <np_classifier_is_glycoside>  (254) 
False

>  <organisms>  (254) 
Hofmeisteria schaffneri

>  <collections>  (254) 
BIOFACQUIM|KNApSaCK|Latin America dataset|NPASS|Super Natural II|UNPD (Universal Natural Products Database)

>  <dois>  (254) 
10.1021/np0501278

>  <synonyms>  (254) 
CHEMBL446527|2-(acetyloxy)-1-(2-hydroxy-4-methylphenyl)ethanone|Z211300530|Hofmeisterin

>  <cas>  (254) 
nan

$$$$

     RDKit          2D

 16 17  0  0  0  0  0  0  0  0999 V2000
   -3.3327    1.9490    0.0000 C   0  0  0  0  0  0  0  0  0  0  0  0
   -2.2780    0.8824    0.0000 C   0  0  0  0  0  0  0  0  0  0  0  0
   -2.5210   -0.5978    0.0000 O   0  0  0  0  0  0  0  0  0  0  0  0
   -1.1884   -1.2863    0.0000 C   0  0  0  0  0  0  0  0  0  0  0  0
   -1.1489   -2.6357    0.0000 O   0  0  0  0  0  0  0  0  0  0  0  0
   -0.1218   -0.2316    0.0000 C   0  0  0  0  0  0  0  0  0  0  0  0
    0.4079   -1.6350    0.0000 C   0  0  0  0  0  0  0  0  0  0  0  0
   -0.3139   -2.7759    0.0000 C   0  0  0  0  0  0  0  0  0  0  0  0
    1.8881   -1.8780    0.0000 C   0  0  0  0  0  0  0  0  0  0  0  0
    2.8386   -0.7177    0.0000 C   0  0  0  0  0  0  0  0  0  0  0  0
    2.3090    0.6857    0.0000 C   0  0  0  0  0  0  0  0  0  0  0  0
    3.2595    1.8461    0.0000 O   0  0  0  0  0  0  0  0  0  0  0  0
    0.8288    0.9287    0.0000 C   0  0  0  0  0  0  0  0  0  0  0  0
    0.5415    2.1093    0.0000 O   0  0  0  0  0  0  0  0  0  0  0  0
   -0.7952    1.1087    0.0000 C   0  0  0  0  0  0  0  0  0  0  0  0
   -0.3732    2.2481    0.0000 O   0  0  0  0  0  0  0  0  0  0  0  0
  1  2  2  0
  2  3  1  0
  3  4  1  0
  4  5  2  0
  6  4  1  6
  6  7  1  0
  7  8  1  1
  7  9  1  0
  9 10  2  0
 10 11  1  0
 11 12  2  0
 11 13  1  0
 13 14  1  1
  6 15  1  0
 15 16  1  6
 15  2  1  0
 13  6  1  0
M  END
>  <identifier>  (255) 
CNP0228911.1

>  <canonical_smiles>  (255) 
C=C1OC(=O)[C@]2([C@H](C)C=CC(=O)[C@@H]2O)[C@H]1O

>  <standard_inchi>  (255) 
InChI=1S/C11H12O5/c1-5-3-4-7(12)9(14)11(5)8(13)6(2)16-10(11)15/h3-5,8-9,13-14H,2H2,1H3/t5-,8+,9+,11-/m1/s1

>  <standard_inchi_key>  (255) 
MWZYYACVPIJBPD-SIWOTSRUSA-N

>  <name>  (255) 
massarigenin C

>  <iupac_name>  (255) 
(4~{R},5~{R},6~{R},10~{R})-4,6-dihydroxy-10-methyl-3-methylene-2-oxaspiro[4.5]dec-8-ene-1,7-dione

>  <annotation_level>  (255) 
5

>  <total_atom_count>  (255) 
28

>  <heavy_atom_count>  (255) 
16

>  <molecular_weight>  (255) 
224.21

>  <exact_molecular_weight>  (255) 
224.06847

>  <molecular_formula>  (255) 
C11H12O5

>  <alogp>  (255) 
-0.46

>  <topological_polar_surface_area>  (255) 
83.83

>  <rotatable_bond_count>  (255) 
0

>  <hydrogen_bond_acceptors>  (255) 
5

>  <hydrogen_bond_donors>  (255) 
2

>  <hydrogen_bond_acceptors_lipinski>  (255) 
5

>  <hydrogen_bond_donors_lipinski>  (255) 
2

>  <lipinski_rule_of_five_violations>  (255) 
0

>  <aromatic_rings_count>  (255) 
0

>  <qed_drug_likeliness>  (255) 
0.54

>  <formal_charge>  (255) 
0

>  <fractioncsp3>  (255) 
0.46

>  <number_of_minimal_rings>  (255) 
2

>  <van_der_walls_volume>  (255) 
190.66

>  <contains_sugar>  (255) 
False

>  <contains_ring_sugars>  (255) 
False

>  <contains_linear_sugars>  (255) 
False

>  <murcko_framework>  (255) 
O1CCC2(C1)CC=CCC2

>  <np_likeness>  (255) 
2.95

>  <chemical_class>  (255) 
Organooxygen compounds

>  <chemical_sub_class>  (255) 
Carbonyl compounds

>  <chemical_super_class>  (255) 
Organic oxygen compounds

>  <direct_parent_classification>  (255) 
Cyclohexenones

>  <np_classifier_pathway>  (255) 
Polyketides

>  <np_classifier_superclass>  (255) 
nan

>  <np_classifier_class>  (255) 
nan

>  <np_classifier_is_glycoside>  (255) 
False

>  <organisms>  (255) 
Malbranchea flavorosea|Massarina tunicata

>  <collections>  (255) 
BIOFACQUIM|KNApSaCK|Latin America dataset|NPASS

>  <dois>  (255) 
10.1021/acs.jnatprod.6b00977|10.1021/np020342d

>  <synonyms>  (255) 
496926-08-0|(4R|5R|6R|10R)-4|6-dihydroxy-10-methyl-3-methylidene-2-oxaspiro4.5dec-8-ene-1|7-dione|2-Oxaspiro4.5dec-8-ene-1|7-dione| 4|6-dihydroxy-10-methyl-3-methylene-| (4R|5R|6R|10R)-rel-(-)- (9CI)|CHEMBL506572|HY-N8535|AKOS040754841|CS-0145924|Massarigenins C

>  <cas>  (255) 
496926-08-0

$$$$

     RDKit          2D

 25 29  0  0  0  0  0  0  0  0999 V2000
   -7.3450    0.3109    0.0000 C   0  0  0  0  0  0  0  0  0  0  0  0
   -5.8475    0.3975    0.0000 C   0  0  0  0  0  0  0  0  0  0  0  0
   -5.1737    1.7377    0.0000 C   0  0  0  0  0  0  0  0  0  0  0  0
   -3.6762    1.8243    0.0000 C   0  0  0  0  0  0  0  0  0  0  0  0
   -2.8525    0.5707    0.0000 C   0  0  0  0  0  0  0  0  0  0  0  0
   -3.5262   -0.7694    0.0000 C   0  0  0  0  0  0  0  0  0  0  0  0
   -5.0237   -0.8561    0.0000 C   0  0  0  0  0  0  0  0  0  0  0  0
   -2.4598   -1.8243    0.0000 O   0  0  0  0  0  0  0  0  0  0  0  0
   -1.1270   -1.1361    0.0000 C   0  0  0  0  0  0  0  0  0  0  0  0
    0.2762   -1.6661    0.0000 O   0  0  0  0  0  0  0  0  0  0  0  0
    1.4368   -0.7158    0.0000 C   0  0  0  0  0  0  0  0  0  0  0  0
    1.1942    0.7644    0.0000 C   0  0  0  0  0  0  0  0  0  0  0  0
   -0.2091    1.2944    0.0000 C   0  0  0  0  0  0  0  0  0  0  0  0
   -1.3697    0.3441    0.0000 C   0  0  0  0  0  0  0  0  0  0  0  0
   -1.7658    1.7909    0.0000 O   0  0  0  0  0  0  0  0  0  0  0  0
    2.6904    0.1080    0.0000 C   0  0  0  0  0  0  0  0  0  0  0  0
    2.9170    1.5907    0.0000 C   0  0  0  0  0  0  0  0  0  0  0  0
    4.3144    2.1359    0.0000 C   0  0  0  0  0  0  0  0  0  0  0  0
    5.4853    1.1982    0.0000 C   0  0  0  0  0  0  0  0  0  0  0  0
    6.8827    1.7434    0.0000 C   0  0  0  0  0  0  0  0  0  0  0  0
    5.2586   -0.2846    0.0000 C   0  0  0  0  0  0  0  0  0  0  0  0
    3.8612   -0.8297    0.0000 C   0  0  0  0  0  0  0  0  0  0  0  0
    3.3312   -2.2330    0.0000 O   0  0  0  0  0  0  0  0  0  0  0  0
    1.8329   -2.1626    0.0000 C   0  0  0  0  0  0  0  0  0  0  0  0
    0.8952   -3.3334    0.0000 O   0  0  0  0  0  0  0  0  0  0  0  0
  1  2  1  0
  2  3  2  0
  3  4  1  0
  4  5  2  0
  5  6  1  0
  6  7  2  0
  6  8  1  0
  9  8  1  6
  9 10  1  0
 10 11  1  0
 11 12  1  6
 12 13  1  0
 13 14  1  0
 14 15  1  1
 11 16  1  0
 16 17  2  0
 17 18  1  0
 18 19  2  0
 19 20  1  0
 19 21  1  0
 21 22  2  0
 22 23  1  0
 23 24  1  0
 24 25  1  6
  7  2  1  0
 14  9  1  0
 22 16  1  0
 14  5  1  0
 24 11  1  0
M  END
>  <identifier>  (256) 
CNP0371026.1

>  <canonical_smiles>  (256) 
CC1=CC=C2C(=C1)O[C@H]1O[C@@]3(CC[C@@]21O)C1=CC=C(C)C=C1O[C@@H]3O

>  <standard_inchi>  (256) 
InChI=1S/C20H20O5/c1-11-3-5-13-15(9-11)24-18-19(13,22)7-8-20(25-18)14-6-4-12(2)10-16(14)23-17(20)21/h3-6,9-10,17-18,21-22H,7-8H2,1-2H3/t17-,18-,19+,20-/m0/s1

>  <standard_inchi_key>  (256) 
YMKQULZUUJUBPP-HAGHYFMRSA-N

>  <name>  (256) 
3',4',4a',9a'-tetrahydro-6,7'-dimethylspiro[benzofuran-3(2H),2'-pyrano[2,3-b]benzofuran]-2,4a'-diol

>  <iupac_name>  (256) 
(2~{S},3~{S},4'~{a}~{R},9'~{a}~{S})-6,7'-dimethylspiro[2~{H}-benzofuran-3,2'-4,9~{a}-dihydro-3~{H}-pyrano[2,3-b]benzofuran]-2,4'~{a}-diol

>  <annotation_level>  (256) 
5

>  <total_atom_count>  (256) 
45

>  <heavy_atom_count>  (256) 
25

>  <molecular_weight>  (256) 
340.38

>  <exact_molecular_weight>  (256) 
340.13107

>  <molecular_formula>  (256) 
C20H20O5

>  <alogp>  (256) 
2.63

>  <topological_polar_surface_area>  (256) 
68.15

>  <rotatable_bond_count>  (256) 
0

>  <hydrogen_bond_acceptors>  (256) 
5

>  <hydrogen_bond_donors>  (256) 
2

>  <hydrogen_bond_acceptors_lipinski>  (256) 
5

>  <hydrogen_bond_donors_lipinski>  (256) 
2

>  <lipinski_rule_of_five_violations>  (256) 
0

>  <aromatic_rings_count>  (256) 
2

>  <qed_drug_likeliness>  (256) 
0.77

>  <formal_charge>  (256) 
0

>  <fractioncsp3>  (256) 
0.40

>  <number_of_minimal_rings>  (256) 
5

>  <van_der_walls_volume>  (256) 
297.88

>  <contains_sugar>  (256) 
False

>  <contains_ring_sugars>  (256) 
False

>  <contains_linear_sugars>  (256) 
False

>  <murcko_framework>  (256) 
O1c2ccccc2C3(OC4Oc5ccccc5C4CC3)C1

>  <np_likeness>  (256) 
1.79

>  <chemical_class>  (256) 
Furopyrans

>  <chemical_sub_class>  (256) 
Furopyrans

>  <chemical_super_class>  (256) 
Organoheterocyclic compounds

>  <direct_parent_classification>  (256) 
Furopyrans

>  <np_classifier_pathway>  (256) 
Terpenoids

>  <np_classifier_superclass>  (256) 
nan

>  <np_classifier_class>  (256) 
nan

>  <np_classifier_is_glycoside>  (256) 
False

>  <organisms>  (256) 
Eupatorium cannabinum|Hofmeisteria schaffneri

>  <collections>  (256) 
BIOFACQUIM|CMAUP (cCollective molecular activities of useful plants)|ChEBI NPs|KNApSaCK|Latin America dataset|NPASS|Super Natural II

>  <dois>  (256) 
10.1021/np0501278|10.1021/np100923z

>  <synonyms>  (256) 
3'|4'|4a'|9a'-tetrahydro-6|7'-dimethylspirobenzofuran-3(2H)|2'-pyrano2|3-bbenzofuran-2|4a'-diol|CHEMBL486806|Q27135898

>  <cas>  (256) 
nan

$$$$

     RDKit          2D

 24 24  0  0  0  0  0  0  0  0999 V2000
    3.6037   -2.5666    0.0000 C   0  0  0  0  0  0  0  0  0  0  0  0
    2.1432   -2.2248    0.0000 C   0  0  0  0  0  0  0  0  0  0  0  0
    1.7089   -0.7890    0.0000 C   0  0  0  0  0  0  0  0  0  0  0  0
    2.7352    0.3049    0.0000 O   0  0  0  0  0  0  0  0  0  0  0  0
    4.1957   -0.0368    0.0000 C   0  0  0  0  0  0  0  0  0  0  0  0
    4.6300   -1.4726    0.0000 O   0  0  0  0  0  0  0  0  0  0  0  0
    5.2220    1.0571    0.0000 C   0  0  0  0  0  0  0  0  0  0  0  0
    6.6825    0.7153    0.0000 C   0  0  0  0  0  0  0  0  0  0  0  0
    7.7088    1.8093    0.0000 C   0  0  0  0  0  0  0  0  0  0  0  0
    7.1168   -0.7204    0.0000 C   0  0  0  0  0  0  0  0  0  0  0  0
    0.2484   -0.4472    0.0000 C   0  0  0  0  0  0  0  0  0  0  0  0
   -0.7779   -1.5412    0.0000 C   0  0  0  0  0  0  0  0  0  0  0  0
   -2.2384   -1.1994    0.0000 C   0  0  0  0  0  0  0  0  0  0  0  0
   -2.6727    0.2363    0.0000 C   0  0  0  0  0  0  0  0  0  0  0  0
   -4.1332    0.5781    0.0000 O   0  0  0  0  0  0  0  0  0  0  0  0
   -5.1595   -0.5159    0.0000 C   0  0  0  0  0  0  0  0  0  0  0  0
   -4.7252   -1.9516    0.0000 O   0  0  0  0  0  0  0  0  0  0  0  0
   -6.6201   -0.1741    0.0000 C   0  0  0  0  0  0  0  0  0  0  0  0
   -7.6463   -1.2680    0.0000 C   0  0  0  0  0  0  0  0  0  0  0  0
   -7.0543    1.2617    0.0000 C   0  0  0  0  0  0  0  0  0  0  0  0
   -1.6464    1.3303    0.0000 C   0  0  0  0  0  0  0  0  0  0  0  0
   -2.0807    2.7661    0.0000 O   0  0  0  0  0  0  0  0  0  0  0  0
   -1.0545    3.8600    0.0000 C   0  0  0  0  0  0  0  0  0  0  0  0
   -0.1859    0.9885    0.0000 C   0  0  0  0  0  0  0  0  0  0  0  0
  1  2  2  0
  2  3  1  0
  3  4  1  1
  4  5  1  0
  5  6  2  0
  5  7  1  0
  7  8  1  0
  8  9  1  0
  8 10  1  0
  3 11  1  0
 11 12  2  0
 12 13  1  0
 13 14  2  0
 14 15  1  0
 15 16  1  0
 16 17  2  0
 16 18  1  0
 18 19  1  0
 18 20  1  0
 14 21  1  0
 21 22  1  0
 22 23  1  0
 21 24  2  0
 24 11  1  0
M  END
>  <identifier>  (257) 
CNP0360547.1

>  <canonical_smiles>  (257) 
C=C[C@H](OC(=O)CC(C)C)C1=CC=C(OC(=O)C(C)C)C(OC)=C1

>  <standard_inchi>  (257) 
InChI=1S/C19H26O5/c1-7-15(23-18(20)10-12(2)3)14-8-9-16(17(11-14)22-6)24-19(21)13(4)5/h7-9,11-13,15H,1,10H2,2-6H3/t15-/m0/s1

>  <standard_inchi_key>  (257) 
ZMQPXMBRSIEPJQ-HNNXBMFYSA-N

>  <name>  (257) 
nan

>  <iupac_name>  (257) 
[(1~{S})-1-[3-methoxy-4-(2-methylpropanoyloxy)phenyl]allyl] 3-methylbutanoate

>  <annotation_level>  (257) 
5

>  <total_atom_count>  (257) 
50

>  <heavy_atom_count>  (257) 
24

>  <molecular_weight>  (257) 
334.41

>  <exact_molecular_weight>  (257) 
334.17802

>  <molecular_formula>  (257) 
C19H26O5

>  <alogp>  (257) 
4.07

>  <topological_polar_surface_area>  (257) 
61.83

>  <rotatable_bond_count>  (257) 
8

>  <hydrogen_bond_acceptors>  (257) 
5

>  <hydrogen_bond_donors>  (257) 
0

>  <hydrogen_bond_acceptors_lipinski>  (257) 
5

>  <hydrogen_bond_donors_lipinski>  (257) 
0

>  <lipinski_rule_of_five_violations>  (257) 
0

>  <aromatic_rings_count>  (257) 
1

>  <qed_drug_likeliness>  (257) 
0.41

>  <formal_charge>  (257) 
0

>  <fractioncsp3>  (257) 
0.47

>  <number_of_minimal_rings>  (257) 
1

>  <van_der_walls_volume>  (257) 
325.27

>  <contains_sugar>  (257) 
False

>  <contains_ring_sugars>  (257) 
False

>  <contains_linear_sugars>  (257) 
False

>  <murcko_framework>  (257) 
c1ccccc1

>  <np_likeness>  (257) 
0.84

>  <chemical_class>  (257) 
Phenol esters

>  <chemical_sub_class>  (257) 
Phenol esters

>  <chemical_super_class>  (257) 
Benzenoids

>  <direct_parent_classification>  (257) 
Phenol esters

>  <np_classifier_pathway>  (257) 
Polyketides

>  <np_classifier_superclass>  (257) 
nan

>  <np_classifier_class>  (257) 
nan

>  <np_classifier_is_glycoside>  (257) 
False

>  <organisms>  (257) 
Cosmos pringlei

>  <collections>  (257) 
BIOFACQUIM|Super Natural II

>  <dois>  (257) 
10.1021/np010615p

>  <synonyms>  (257) 
1'-Isovaleroyloxy-4-O-isobutyryleugenol

>  <cas>  (257) 
nan

$$$$

     RDKit          2D

 23 25  0  0  0  0  0  0  0  0999 V2000
    5.9406   -0.1003    0.0000 C   0  0  0  0  0  0  0  0  0  0  0  0
    4.5252    0.3962    0.0000 C   0  0  0  0  0  0  0  0  0  0  0  0
    4.0949    1.8332    0.0000 C   0  0  0  0  0  0  0  0  0  0  0  0
    5.0045    3.0259    0.0000 O   0  0  0  0  0  0  0  0  0  0  0  0
    2.5953    1.8680    0.0000 O   0  0  0  0  0  0  0  0  0  0  0  0
    2.0988    0.4525    0.0000 C   0  0  0  0  0  0  0  0  0  0  0  0
    3.2915   -0.4571    0.0000 C   0  0  0  0  0  0  0  0  0  0  0  0
    3.3240   -1.9567    0.0000 C   0  0  0  0  0  0  0  0  0  0  0  0
    2.1718   -2.9171    0.0000 C   0  0  0  0  0  0  0  0  0  0  0  0
    0.7025   -2.6151    0.0000 C   0  0  0  0  0  0  0  0  0  0  0  0
   -0.2071   -3.8079    0.0000 C   0  0  0  0  0  0  0  0  0  0  0  0
    0.0226   -1.2781    0.0000 C   0  0  0  0  0  0  0  0  0  0  0  0
   -1.4679   -1.1090    0.0000 C   0  0  0  0  0  0  0  0  0  0  0  0
   -1.7676    0.3608    0.0000 C   0  0  0  0  0  0  0  0  0  0  0  0
   -3.1328    0.9821    0.0000 O   0  0  0  0  0  0  0  0  0  0  0  0
   -4.3536    0.1105    0.0000 C   0  0  0  0  0  0  0  0  0  0  0  0
   -4.2091   -1.3825    0.0000 O   0  0  0  0  0  0  0  0  0  0  0  0
   -5.7188    0.7319    0.0000 C   0  0  0  0  0  0  0  0  0  0  0  0
   -6.9396   -0.1397    0.0000 C   0  0  0  0  0  0  0  0  0  0  0  0
   -5.8633    2.2249    0.0000 C   0  0  0  0  0  0  0  0  0  0  0  0
   -0.4624    1.1000    0.0000 C   0  0  0  0  0  0  0  0  0  0  0  0
   -0.2933    2.5904    0.0000 C   0  0  0  0  0  0  0  0  0  0  0  0
    0.6440    0.0871    0.0000 C   0  0  0  0  0  0  0  0  0  0  0  0
  1  2  2  0
  2  3  1  0
  3  4  2  0
  3  5  1  0
  6  5  1  1
  6  7  1  0
  7  8  1  0
  8  9  1  0
  9 10  1  0
 10 11  2  0
 10 12  1  0
 12 13  1  6
 13 14  1  0
 14 15  1  6
 15 16  1  0
 16 17  2  0
 16 18  1  0
 18 19  1  0
 18 20  1  0
 14 21  1  0
 21 22  2  0
 23 21  1  6
  7  2  1  0
 23 12  1  0
 23  6  1  0
M  END
>  <identifier>  (258) 
CNP0280468.1

>  <canonical_smiles>  (258) 
C=C1C(=O)O[C@H]2C1CCC(=C)[C@@H]1C[C@H](OC(=O)C(C)C)C(=C)[C@@H]12

>  <standard_inchi>  (258) 
InChI=1S/C19H24O4/c1-9(2)18(20)22-15-8-14-10(3)6-7-13-11(4)19(21)23-17(13)16(14)12(15)5/h9,13-17H,3-8H2,1-2H3/t13?,14-,15-,16-,17-/m0/s1

>  <standard_inchi_key>  (258) 
AKXLMIWFRPOECM-QKSACFKYSA-N

>  <name>  (258) 
nan

>  <iupac_name>  (258) 
[(6~{a}~{R},8~{S},9~{a}~{R},9~{b}~{S})-3,6,9-trimethylene-2-oxo-3~{a},4,5,6~{a},7,8,9~{a},9~{b}-octahydroazuleno[4,5-b]furan-8-yl] 2-methylpropanoate

>  <annotation_level>  (258) 
5

>  <total_atom_count>  (258) 
47

>  <heavy_atom_count>  (258) 
23

>  <molecular_weight>  (258) 
316.4

>  <exact_molecular_weight>  (258) 
316.16746

>  <molecular_formula>  (258) 
C19H24O4

>  <alogp>  (258) 
3.19

>  <topological_polar_surface_area>  (258) 
52.60

>  <rotatable_bond_count>  (258) 
2

>  <hydrogen_bond_acceptors>  (258) 
4

>  <hydrogen_bond_donors>  (258) 
0

>  <hydrogen_bond_acceptors_lipinski>  (258) 
4

>  <hydrogen_bond_donors_lipinski>  (258) 
0

>  <lipinski_rule_of_five_violations>  (258) 
0

>  <aromatic_rings_count>  (258) 
0

>  <qed_drug_likeliness>  (258) 
0.45

>  <formal_charge>  (258) 
0

>  <fractioncsp3>  (258) 
0.58

>  <number_of_minimal_rings>  (258) 
3

>  <van_der_walls_volume>  (258) 
300.34

>  <contains_sugar>  (258) 
False

>  <contains_ring_sugars>  (258) 
False

>  <contains_linear_sugars>  (258) 
False

>  <murcko_framework>  (258) 
O1CCC2CCCC3CCCC3C12

>  <np_likeness>  (258) 
3.07

>  <chemical_class>  (258) 
Prenol lipids

>  <chemical_sub_class>  (258) 
Terpene lactones

>  <chemical_super_class>  (258) 
Lipids and lipid-like molecules

>  <direct_parent_classification>  (258) 
Guaianolides and derivatives

>  <np_classifier_pathway>  (258) 
Terpenoids

>  <np_classifier_superclass>  (258) 
Sesquiterpenoids

>  <np_classifier_class>  (258) 
Guaiane sesquiterpenoids

>  <np_classifier_is_glycoside>  (258) 
False

>  <organisms>  (258) 
Cosmos pringlei

>  <collections>  (258) 
BIOFACQUIM|Latin America dataset

>  <dois>  (258) 
10.1021/np010615p

>  <synonyms>  (258) 
Zaluzanin C isobutyrate

>  <cas>  (258) 
nan

$$$$

     RDKit          2D

 24 26  0  0  0  0  0  0  0  0999 V2000
    6.3166   -0.3375    0.0000 C   0  0  0  0  0  0  0  0  0  0  0  0
    4.9333    0.2426    0.0000 C   0  0  0  0  0  0  0  0  0  0  0  0
    4.5897    1.7027    0.0000 C   0  0  0  0  0  0  0  0  0  0  0  0
    5.5689    2.8390    0.0000 O   0  0  0  0  0  0  0  0  0  0  0  0
    3.0948    1.8270    0.0000 O   0  0  0  0  0  0  0  0  0  0  0  0
    2.5146    0.4438    0.0000 C   0  0  0  0  0  0  0  0  0  0  0  0
    3.6509   -0.5354    0.0000 C   0  0  0  0  0  0  0  0  0  0  0  0
    3.5938   -2.0343    0.0000 C   0  0  0  0  0  0  0  0  0  0  0  0
    2.3863   -2.9242    0.0000 C   0  0  0  0  0  0  0  0  0  0  0  0
    0.9376   -2.5350    0.0000 C   0  0  0  0  0  0  0  0  0  0  0  0
   -0.0416   -3.6713    0.0000 C   0  0  0  0  0  0  0  0  0  0  0  0
    0.3388   -1.1597    0.0000 C   0  0  0  0  0  0  0  0  0  0  0  0
   -1.1389   -0.9019    0.0000 C   0  0  0  0  0  0  0  0  0  0  0  0
   -1.3503    0.5831    0.0000 C   0  0  0  0  0  0  0  0  0  0  0  0
   -2.6760    1.2849    0.0000 O   0  0  0  0  0  0  0  0  0  0  0  0
   -3.9467    0.4878    0.0000 C   0  0  0  0  0  0  0  0  0  0  0  0
   -3.8916   -1.0112    0.0000 O   0  0  0  0  0  0  0  0  0  0  0  0
   -5.2723    1.1896    0.0000 C   0  0  0  0  0  0  0  0  0  0  0  0
   -6.5430    0.3925    0.0000 C   0  0  0  0  0  0  0  0  0  0  0  0
   -7.8687    1.0943    0.0000 C   0  0  0  0  0  0  0  0  0  0  0  0
   -6.4879   -1.1065    0.0000 C   0  0  0  0  0  0  0  0  0  0  0  0
   -0.0033    1.2431    0.0000 C   0  0  0  0  0  0  0  0  0  0  0  0
    0.2545    2.7208    0.0000 C   0  0  0  0  0  0  0  0  0  0  0  0
    1.0406    0.1660    0.0000 C   0  0  0  0  0  0  0  0  0  0  0  0
  1  2  2  0
  2  3  1  0
  3  4  2  0
  3  5  1  0
  6  5  1  1
  6  7  1  0
  7  8  1  0
  8  9  1  0
  9 10  1  0
 10 11  2  0
 10 12  1  0
 12 13  1  6
 13 14  1  0
 14 15  1  6
 15 16  1  0
 16 17  2  0
 16 18  1  0
 18 19  1  0
 19 20  1  0
 19 21  1  0
 14 22  1  0
 22 23  2  0
 24 22  1  6
  7  2  1  0
 24 12  1  0
 24  6  1  0
M  END
>  <identifier>  (259) 
CNP0257853.1

>  <canonical_smiles>  (259) 
C=C1C(=O)O[C@H]2C1CCC(=C)[C@@H]1C[C@H](OC(=O)CC(C)C)C(=C)[C@@H]12

>  <standard_inchi>  (259) 
InChI=1S/C20H26O4/c1-10(2)8-17(21)23-16-9-15-11(3)6-7-14-12(4)20(22)24-19(14)18(15)13(16)5/h10,14-16,18-19H,3-9H2,1-2H3/t14?,15-,16-,18-,19-/m0/s1

>  <standard_inchi_key>  (259) 
PIGAIBAKKDXNOK-PAZXDIGFSA-N

>  <name>  (259) 
nan

>  <iupac_name>  (259) 
[(6~{a}~{R},8~{S},9~{a}~{R},9~{b}~{S})-3,6,9-trimethylene-2-oxo-3~{a},4,5,6~{a},7,8,9~{a},9~{b}-octahydroazuleno[4,5-b]furan-8-yl] 3-methylbutanoate

>  <annotation_level>  (259) 
5

>  <total_atom_count>  (259) 
50

>  <heavy_atom_count>  (259) 
24

>  <molecular_weight>  (259) 
330.42

>  <exact_molecular_weight>  (259) 
330.18311

>  <molecular_formula>  (259) 
C20H26O4

>  <alogp>  (259) 
3.58

>  <topological_polar_surface_area>  (259) 
52.60

>  <rotatable_bond_count>  (259) 
3

>  <hydrogen_bond_acceptors>  (259) 
4

>  <hydrogen_bond_donors>  (259) 
0

>  <hydrogen_bond_acceptors_lipinski>  (259) 
4

>  <hydrogen_bond_donors_lipinski>  (259) 
0

>  <lipinski_rule_of_five_violations>  (259) 
0

>  <aromatic_rings_count>  (259) 
0

>  <qed_drug_likeliness>  (259) 
0.45

>  <formal_charge>  (259) 
0

>  <fractioncsp3>  (259) 
0.60

>  <number_of_minimal_rings>  (259) 
3

>  <van_der_walls_volume>  (259) 
315.97

>  <contains_sugar>  (259) 
False

>  <contains_ring_sugars>  (259) 
False

>  <contains_linear_sugars>  (259) 
False

>  <murcko_framework>  (259) 
O1CCC2CCCC3CCCC3C12

>  <np_likeness>  (259) 
2.95

>  <chemical_class>  (259) 
Prenol lipids

>  <chemical_sub_class>  (259) 
Terpene lactones

>  <chemical_super_class>  (259) 
Lipids and lipid-like molecules

>  <direct_parent_classification>  (259) 
Guaianolides and derivatives

>  <np_classifier_pathway>  (259) 
Terpenoids

>  <np_classifier_superclass>  (259) 
Sesquiterpenoids

>  <np_classifier_class>  (259) 
Guaiane sesquiterpenoids

>  <np_classifier_is_glycoside>  (259) 
False

>  <organisms>  (259) 
Cosmos pringlei

>  <collections>  (259) 
BIOFACQUIM|Latin America dataset

>  <dois>  (259) 
10.1021/np010615p

>  <synonyms>  (259) 
Zaluzanin C isovalerate

>  <cas>  (259) 
nan

$$$$

     RDKit          2D

 17 19  0  0  0  0  0  0  0  0999 V2000
    3.7388   -1.8318    0.0000 C   0  0  0  0  0  0  0  0  0  0  0  0
    2.6986   -0.7510    0.0000 C   0  0  0  0  0  0  0  0  0  0  0  0
    2.9616    0.7257    0.0000 C   0  0  0  0  0  0  0  0  0  0  0  0
    4.3109    1.3810    0.0000 O   0  0  0  0  0  0  0  0  0  0  0  0
    1.6384    1.4322    0.0000 O   0  0  0  0  0  0  0  0  0  0  0  0
    0.5576    0.3921    0.0000 C   0  0  0  0  0  0  0  0  0  0  0  0
    1.2129   -0.9572    0.0000 C   0  0  0  0  0  0  0  0  0  0  0  0
    0.5665   -2.3108    0.0000 C   0  0  0  0  0  0  0  0  0  0  0  0
   -0.8948   -2.6494    0.0000 C   0  0  0  0  0  0  0  0  0  0  0  0
   -2.0706   -1.7180    0.0000 C   0  0  0  0  0  0  0  0  0  0  0  0
   -3.4199   -2.3733    0.0000 C   0  0  0  0  0  0  0  0  0  0  0  0
   -2.0755   -0.2180    0.0000 C   0  0  0  0  0  0  0  0  0  0  0  0
   -3.3301    0.6042    0.0000 C   0  0  0  0  0  0  0  0  0  0  0  0
   -2.9358    2.0515    0.0000 C   0  0  0  0  0  0  0  0  0  0  0  0
   -1.4375    2.1237    0.0000 C   0  0  0  0  0  0  0  0  0  0  0  0
   -0.6153    3.3782    0.0000 C   0  0  0  0  0  0  0  0  0  0  0  0
   -0.9059    0.7211    0.0000 C   0  0  0  0  0  0  0  0  0  0  0  0
  1  2  2  0
  2  3  1  0
  3  4  2  0
  3  5  1  0
  6  5  1  1
  6  7  1  0
  7  8  1  0
  8  9  1  0
  9 10  1  0
 10 11  2  0
 10 12  1  0
 12 13  1  6
 13 14  1  0
 14 15  1  0
 15 16  2  0
 17 15  1  6
  7  2  1  0
 17 12  1  0
 17  6  1  0
M  END
>  <identifier>  (260) 
CNP0138595.1

>  <canonical_smiles>  (260) 
C=C1C(=O)O[C@H]2C1CCC(=C)[C@@H]1CCC(=C)[C@@H]12

>  <standard_inchi>  (260) 
InChI=1S/C15H18O2/c1-8-4-7-12-10(3)15(16)17-14(12)13-9(2)5-6-11(8)13/h11-14H,1-7H2/t11-,12?,13-,14-/m0/s1

>  <standard_inchi_key>  (260) 
NETSQGRTUNRXEO-FTKZKSHWSA-N

>  <name>  (260) 
nan

>  <iupac_name>  (260) 
(6~{a}~{R},9~{a}~{R},9~{b}~{S})-3,6,9-trimethylene-3~{a},4,5,6~{a},7,8,9~{a},9~{b}-octahydroazuleno[4,5-b]furan-2-one

>  <annotation_level>  (260) 
5

>  <total_atom_count>  (260) 
35

>  <heavy_atom_count>  (260) 
17

>  <molecular_weight>  (260) 
230.31

>  <exact_molecular_weight>  (260) 
230.13068

>  <molecular_formula>  (260) 
C15H18O2

>  <alogp>  (260) 
3.02

>  <topological_polar_surface_area>  (260) 
26.30

>  <rotatable_bond_count>  (260) 
0

>  <hydrogen_bond_acceptors>  (260) 
2

>  <hydrogen_bond_donors>  (260) 
0

>  <hydrogen_bond_acceptors_lipinski>  (260) 
2

>  <hydrogen_bond_donors_lipinski>  (260) 
0

>  <lipinski_rule_of_five_violations>  (260) 
0

>  <aromatic_rings_count>  (260) 
0

>  <qed_drug_likeliness>  (260) 
0.36

>  <formal_charge>  (260) 
0

>  <fractioncsp3>  (260) 
0.53

>  <number_of_minimal_rings>  (260) 
3

>  <van_der_walls_volume>  (260) 
220.93

>  <contains_sugar>  (260) 
False

>  <contains_ring_sugars>  (260) 
False

>  <contains_linear_sugars>  (260) 
False

>  <murcko_framework>  (260) 
O1CCC2CCCC3CCCC3C12

>  <np_likeness>  (260) 
3.00

>  <chemical_class>  (260) 
Prenol lipids

>  <chemical_sub_class>  (260) 
Terpene lactones

>  <chemical_super_class>  (260) 
Lipids and lipid-like molecules

>  <direct_parent_classification>  (260) 
Guaianolides and derivatives

>  <np_classifier_pathway>  (260) 
Terpenoids

>  <np_classifier_superclass>  (260) 
Sesquiterpenoids

>  <np_classifier_class>  (260) 
Guaiane sesquiterpenoids

>  <np_classifier_is_glycoside>  (260) 
False

>  <organisms>  (260) 
Cosmos pringlei|Mochinea polymorpha

>  <collections>  (260) 
BIOFACQUIM|Latin America dataset|NuBBEDB

>  <dois>  (260) 
10.1021/np010615p|10.1021/np50032a021

>  <synonyms>  (260) 
Dehydrocostus lactone

>  <cas>  (260) 
nan

$$$$

     RDKit          2D

 23 23  0  0  0  0  0  0  0  0999 V2000
    4.0109   -2.6721    0.0000 C   0  0  0  0  0  0  0  0  0  0  0  0
    2.5542   -2.3142    0.0000 C   0  0  0  0  0  0  0  0  0  0  0  0
    2.1358   -0.8737    0.0000 C   0  0  0  0  0  0  0  0  0  0  0  0
    3.1741    0.2089    0.0000 O   0  0  0  0  0  0  0  0  0  0  0  0
    4.6308   -0.1490    0.0000 C   0  0  0  0  0  0  0  0  0  0  0  0
    5.0492   -1.5895    0.0000 O   0  0  0  0  0  0  0  0  0  0  0  0
    5.6691    0.9335    0.0000 C   0  0  0  0  0  0  0  0  0  0  0  0
    7.1258    0.5756    0.0000 C   0  0  0  0  0  0  0  0  0  0  0  0
    5.2507    2.3740    0.0000 C   0  0  0  0  0  0  0  0  0  0  0  0
    0.6791   -0.5158    0.0000 C   0  0  0  0  0  0  0  0  0  0  0  0
   -0.3591   -1.5984    0.0000 C   0  0  0  0  0  0  0  0  0  0  0  0
   -1.8158   -1.2405    0.0000 C   0  0  0  0  0  0  0  0  0  0  0  0
   -2.2342    0.2000    0.0000 C   0  0  0  0  0  0  0  0  0  0  0  0
   -3.6909    0.5579    0.0000 O   0  0  0  0  0  0  0  0  0  0  0  0
   -4.7292   -0.5247    0.0000 C   0  0  0  0  0  0  0  0  0  0  0  0
   -4.3108   -1.9652    0.0000 O   0  0  0  0  0  0  0  0  0  0  0  0
   -6.1858   -0.1668    0.0000 C   0  0  0  0  0  0  0  0  0  0  0  0
   -7.2241   -1.2494    0.0000 C   0  0  0  0  0  0  0  0  0  0  0  0
   -6.6042    1.2737    0.0000 C   0  0  0  0  0  0  0  0  0  0  0  0
   -1.1959    1.2825    0.0000 C   0  0  0  0  0  0  0  0  0  0  0  0
   -1.6143    2.7230    0.0000 O   0  0  0  0  0  0  0  0  0  0  0  0
   -0.5760    3.8056    0.0000 C   0  0  0  0  0  0  0  0  0  0  0  0
    0.2608    0.9246    0.0000 C   0  0  0  0  0  0  0  0  0  0  0  0
  1  2  2  0
  2  3  1  0
  3  4  1  1
  4  5  1  0
  5  6  2  0
  5  7  1  0
  7  8  1  0
  7  9  1  0
  3 10  1  0
 10 11  2  0
 11 12  1  0
 12 13  2  0
 13 14  1  0
 14 15  1  0
 15 16  2  0
 15 17  1  0
 17 18  1  0
 17 19  1  0
 13 20  1  0
 20 21  1  0
 21 22  1  0
 20 23  2  0
 23 10  1  0
M  END
>  <identifier>  (261) 
CNP0278161.1

>  <canonical_smiles>  (261) 
C=C[C@H](OC(=O)C(C)C)C1=CC=C(OC(=O)C(C)C)C(OC)=C1

>  <standard_inchi>  (261) 
InChI=1S/C18H24O5/c1-7-14(22-17(19)11(2)3)13-8-9-15(16(10-13)21-6)23-18(20)12(4)5/h7-12,14H,1H2,2-6H3/t14-/m0/s1

>  <standard_inchi_key>  (261) 
ZMXFKFQNJTXZBC-AWEZNQCLSA-N

>  <name>  (261) 
nan

>  <iupac_name>  (261) 
[2-methoxy-4-[(1~{S})-1-(2-methylpropanoyloxy)allyl]phenyl] 2-methylpropanoate

>  <annotation_level>  (261) 
5

>  <total_atom_count>  (261) 
47

>  <heavy_atom_count>  (261) 
23

>  <molecular_weight>  (261) 
320.39

>  <exact_molecular_weight>  (261) 
320.16237

>  <molecular_formula>  (261) 
C18H24O5

>  <alogp>  (261) 
3.68

>  <topological_polar_surface_area>  (261) 
61.83

>  <rotatable_bond_count>  (261) 
7

>  <hydrogen_bond_acceptors>  (261) 
5

>  <hydrogen_bond_donors>  (261) 
0

>  <hydrogen_bond_acceptors_lipinski>  (261) 
5

>  <hydrogen_bond_donors_lipinski>  (261) 
0

>  <lipinski_rule_of_five_violations>  (261) 
0

>  <aromatic_rings_count>  (261) 
1

>  <qed_drug_likeliness>  (261) 
0.44

>  <formal_charge>  (261) 
0

>  <fractioncsp3>  (261) 
0.44

>  <number_of_minimal_rings>  (261) 
1

>  <van_der_walls_volume>  (261) 
309.17

>  <contains_sugar>  (261) 
False

>  <contains_ring_sugars>  (261) 
False

>  <contains_linear_sugars>  (261) 
False

>  <murcko_framework>  (261) 
c1ccccc1

>  <np_likeness>  (261) 
0.77

>  <chemical_class>  (261) 
Phenol esters

>  <chemical_sub_class>  (261) 
Phenol esters

>  <chemical_super_class>  (261) 
Benzenoids

>  <direct_parent_classification>  (261) 
Phenol esters

>  <np_classifier_pathway>  (261) 
Polyketides

>  <np_classifier_superclass>  (261) 
nan

>  <np_classifier_class>  (261) 
nan

>  <np_classifier_is_glycoside>  (261) 
False

>  <organisms>  (261) 
Cosmos pringlei

>  <collections>  (261) 
BIOFACQUIM|Super Natural II

>  <dois>  (261) 
10.1021/np010615p

>  <synonyms>  (261) 
1'-isobutiroyloxy-4-O-isobutyryleugenol

>  <cas>  (261) 
nan

$$$$

     RDKit          2D

 13 13  0  0  0  0  0  0  0  0999 V2000
    3.1249   -1.8154    0.0000 C   0  0  0  0  0  0  0  0  0  0  0  0
    2.5064   -0.4488    0.0000 C   0  0  0  0  0  0  0  0  0  0  0  0
    3.3807    0.7700    0.0000 O   0  0  0  0  0  0  0  0  0  0  0  0
    1.0137   -0.3011    0.0000 C   0  0  0  0  0  0  0  0  0  0  0  0
    0.1395   -1.5200    0.0000 C   0  0  0  0  0  0  0  0  0  0  0  0
   -1.3532   -1.3723    0.0000 C   0  0  0  0  0  0  0  0  0  0  0  0
   -2.2275   -2.5912    0.0000 C   0  0  0  0  0  0  0  0  0  0  0  0
   -1.9717   -0.0057    0.0000 C   0  0  0  0  0  0  0  0  0  0  0  0
   -3.4644    0.1420    0.0000 O   0  0  0  0  0  0  0  0  0  0  0  0
   -1.0974    1.2131    0.0000 C   0  0  0  0  0  0  0  0  0  0  0  0
   -1.7159    2.5797    0.0000 C   0  0  0  0  0  0  0  0  0  0  0  0
    0.3953    1.0654    0.0000 C   0  0  0  0  0  0  0  0  0  0  0  0
    1.2696    2.2843    0.0000 O   0  0  0  0  0  0  0  0  0  0  0  0
  1  2  1  0
  2  3  2  0
  2  4  1  0
  4  5  2  0
  5  6  1  0
  6  7  1  0
  6  8  2  0
  8  9  1  0
  8 10  1  0
 10 11  1  0
 10 12  2  0
 12 13  1  0
 12  4  1  0
M  END
>  <identifier>  (262) 
CNP0250819.0

>  <canonical_smiles>  (262) 
CC(=O)C1=CC(C)=C(O)C(C)=C1O

>  <standard_inchi>  (262) 
InChI=1S/C10H12O3/c1-5-4-8(7(3)11)10(13)6(2)9(5)12/h4,12-13H,1-3H3

>  <standard_inchi_key>  (262) 
AMZNYVFIWCPUAY-UHFFFAOYSA-N

>  <name>  (262) 
Clavatol

>  <iupac_name>  (262) 
1-(2,4-dihydroxy-3,5-dimethyl-phenyl)ethanone

>  <annotation_level>  (262) 
5

>  <total_atom_count>  (262) 
25

>  <heavy_atom_count>  (262) 
13

>  <molecular_weight>  (262) 
180.2

>  <exact_molecular_weight>  (262) 
180.07864

>  <molecular_formula>  (262) 
C10H12O3

>  <alogp>  (262) 
1.92

>  <topological_polar_surface_area>  (262) 
57.53

>  <rotatable_bond_count>  (262) 
1

>  <hydrogen_bond_acceptors>  (262) 
3

>  <hydrogen_bond_donors>  (262) 
2

>  <hydrogen_bond_acceptors_lipinski>  (262) 
3

>  <hydrogen_bond_donors_lipinski>  (262) 
2

>  <lipinski_rule_of_five_violations>  (262) 
0

>  <aromatic_rings_count>  (262) 
1

>  <qed_drug_likeliness>  (262) 
0.65

>  <formal_charge>  (262) 
0

>  <fractioncsp3>  (262) 
0.30

>  <number_of_minimal_rings>  (262) 
1

>  <van_der_walls_volume>  (262) 
168.66

>  <contains_sugar>  (262) 
False

>  <contains_ring_sugars>  (262) 
False

>  <contains_linear_sugars>  (262) 
False

>  <murcko_framework>  (262) 
c1ccccc1

>  <np_likeness>  (262) 
0.57

>  <chemical_class>  (262) 
Organooxygen compounds

>  <chemical_sub_class>  (262) 
Carbonyl compounds

>  <chemical_super_class>  (262) 
Organic oxygen compounds

>  <direct_parent_classification>  (262) 
Alkyl-phenylketones

>  <np_classifier_pathway>  (262) 
nan

>  <np_classifier_superclass>  (262) 
nan

>  <np_classifier_class>  (262) 
nan

>  <np_classifier_is_glycoside>  (262) 
False

>  <organisms>  (262) 
Aspergillus clavatonanicus + Pytium ultimum|Malbranchea flavorosea|Zingiber officinale

>  <collections>  (262) 
BIOFACQUIM|CMAUP (cCollective molecular activities of useful plants)|EMNPD|Latin America dataset|NPASS|NPEdia|Super Natural II|UNPD (Universal Natural Products Database)

>  <dois>  (262) 
10.1021/acs.jnatprod.6b00977

>  <synonyms>  (262) 
Clavatol (phenone)|577-45-7|1-(2|4-Dihydroxy-3|5-dimethylphenyl)ethanone|Ethanone| 1-(2|4-dihydroxy-3|5-dimethylphenyl)-|NY65Z5RZ3T|UNII-NY65Z5RZ3T|2'|4'-dihydroxy-3'|5'-dimethylacetophenone|Acetylphenone| 2'|4'-dihydroxy-3'|5'-dimethyl-|DTXSID30973293|CHEBI:188925|AKOS022640525|BS-1025|Clavatol

>  <cas>  (262) 
577-45-7

$$$$

     RDKit          2D

 17 18  0  0  0  0  0  0  0  0999 V2000
   -3.0908    2.4375    0.0000 C   0  0  0  0  0  0  0  0  0  0  0  0
   -2.5848    1.0254    0.0000 C   0  0  0  0  0  0  0  0  0  0  0  0
   -3.4297   -0.2139    0.0000 C   0  0  0  0  0  0  0  0  0  0  0  0
   -4.9291   -0.2588    0.0000 O   0  0  0  0  0  0  0  0  0  0  0  0
   -2.5121   -1.4005    0.0000 O   0  0  0  0  0  0  0  0  0  0  0  0
   -1.1001   -0.8945    0.0000 C   0  0  0  0  0  0  0  0  0  0  0  0
   -0.1824   -2.0811    0.0000 C   0  0  0  0  0  0  0  0  0  0  0  0
    1.2574   -2.5017    0.0000 C   0  0  0  0  0  0  0  0  0  0  0  0
    1.3023   -4.0010    0.0000 C   0  0  0  0  0  0  0  0  0  0  0  0
    2.6694   -1.9957    0.0000 C   0  0  0  0  0  0  0  0  0  0  0  0
    3.5144   -0.7563    0.0000 C   0  0  0  0  0  0  0  0  0  0  0  0
    3.4695    0.7430    0.0000 C   0  0  0  0  0  0  0  0  0  0  0  0
    2.5519    1.9296    0.0000 C   0  0  0  0  0  0  0  0  0  0  0  0
    3.3969    3.1690    0.0000 C   0  0  0  0  0  0  0  0  0  0  0  0
    1.1121    2.3502    0.0000 C   0  0  0  0  0  0  0  0  0  0  0  0
   -0.3000    1.8442    0.0000 C   0  0  0  0  0  0  0  0  0  0  0  0
   -1.1449    0.6048    0.0000 C   0  0  0  0  0  0  0  0  0  0  0  0
  1  2  2  0
  2  3  1  0
  3  4  2  0
  3  5  1  0
  5  6  1  0
  6  7  1  1
  7  8  1  0
  8  9  1  0
  8 10  2  0
 10 11  1  0
 11 12  2  0
 12 13  1  0
 13 14  1  0
 13 15  1  0
 15 16  1  0
 17 16  1  6
 17  2  1  0
 17  6  1  0
M  END
>  <identifier>  (263) 
CNP0335034.1

>  <canonical_smiles>  (263) 
C=C1C(=O)O[C@@H]2C/C(C)=C\C=C/C(C)CC[C@@H]12

>  <standard_inchi>  (263) 
InChI=1S/C15H20O2/c1-10-5-4-6-11(2)9-14-13(8-7-10)12(3)15(16)17-14/h4-6,10,13-14H,3,7-9H2,1-2H3/b5-4-,11-6-/t10?,13-,14+/m0/s1

>  <standard_inchi_key>  (263) 
MMTZAJNKISZWFG-LUIAVFIISA-N

>  <name>  (263) 
nan

>  <iupac_name>  (263) 
(3~{a}~{S},7~{Z},9~{Z},11~{a}~{R})-6,10-dimethyl-3-methylene-3~{a},4,5,6,11,11~{a}-hexahydrocyclodeca[b]furan-2-one

>  <annotation_level>  (263) 
5

>  <total_atom_count>  (263) 
37

>  <heavy_atom_count>  (263) 
17

>  <molecular_weight>  (263) 
232.32

>  <exact_molecular_weight>  (263) 
232.14633

>  <molecular_formula>  (263) 
C15H20O2

>  <alogp>  (263) 
3.41

>  <topological_polar_surface_area>  (263) 
26.30

>  <rotatable_bond_count>  (263) 
0

>  <hydrogen_bond_acceptors>  (263) 
2

>  <hydrogen_bond_donors>  (263) 
0

>  <hydrogen_bond_acceptors_lipinski>  (263) 
2

>  <hydrogen_bond_donors_lipinski>  (263) 
0

>  <lipinski_rule_of_five_violations>  (263) 
0

>  <aromatic_rings_count>  (263) 
0

>  <qed_drug_likeliness>  (263) 
0.47

>  <formal_charge>  (263) 
0

>  <fractioncsp3>  (263) 
0.53

>  <number_of_minimal_rings>  (263) 
2

>  <van_der_walls_volume>  (263) 
231.72

>  <contains_sugar>  (263) 
False

>  <contains_ring_sugars>  (263) 
False

>  <contains_linear_sugars>  (263) 
False

>  <murcko_framework>  (263) 
O1CCC2CCCC=CC=CCC12

>  <np_likeness>  (263) 
3.45

>  <chemical_class>  (263) 
Prenol lipids

>  <chemical_sub_class>  (263) 
Terpene lactones

>  <chemical_super_class>  (263) 
Lipids and lipid-like molecules

>  <direct_parent_classification>  (263) 
Germacranolides and derivatives

>  <np_classifier_pathway>  (263) 
Terpenoids

>  <np_classifier_superclass>  (263) 
Sesquiterpenoids

>  <np_classifier_class>  (263) 
Germacrane sesquiterpenoids

>  <np_classifier_is_glycoside>  (263) 
False

>  <organisms>  (263) 
Cosmos pringlei

>  <collections>  (263) 
BIOFACQUIM|Latin America dataset

>  <dois>  (263) 
10.1021/np010615p

>  <synonyms>  (263) 
Costunolide

>  <cas>  (263) 
nan

$$$$

     RDKit          2D

 23 24  0  0  0  0  0  0  0  0999 V2000
   -3.7844   -3.4380    0.0000 C   0  0  0  0  0  0  0  0  0  0  0  0
   -2.4458   -2.7610    0.0000 C   0  0  0  0  0  0  0  0  0  0  0  0
   -1.1114   -3.4460    0.0000 C   0  0  0  0  0  0  0  0  0  0  0  0
   -0.8812   -4.9282    0.0000 O   0  0  0  0  0  0  0  0  0  0  0  0
   -0.0475   -2.3885    0.0000 O   0  0  0  0  0  0  0  0  0  0  0  0
   -0.7245   -1.0500    0.0000 C   0  0  0  0  0  0  0  0  0  0  0  0
    0.3393    0.0075    0.0000 C   0  0  0  0  0  0  0  0  0  0  0  0
    0.5784    1.4883    0.0000 C   0  0  0  0  0  0  0  0  0  0  0  0
    2.0607    1.7185    0.0000 C   0  0  0  0  0  0  0  0  0  0  0  0
    3.0011    0.5500    0.0000 O   0  0  0  0  0  0  0  0  0  0  0  0
    4.4834    0.7802    0.0000 C   0  0  0  0  0  0  0  0  0  0  0  0
    5.0251    2.1789    0.0000 O   0  0  0  0  0  0  0  0  0  0  0  0
    5.4239   -0.3884    0.0000 C   0  0  0  0  0  0  0  0  0  0  0  0
    6.9061   -0.1582    0.0000 C   0  0  0  0  0  0  0  0  0  0  0  0
    4.8821   -1.7871    0.0000 C   0  0  0  0  0  0  0  0  0  0  0  0
   -0.0985    2.8269    0.0000 C   0  0  0  0  0  0  0  0  0  0  0  0
   -1.4330    3.5119    0.0000 C   0  0  0  0  0  0  0  0  0  0  0  0
   -2.9152    3.2817    0.0000 C   0  0  0  0  0  0  0  0  0  0  0  0
   -3.9791    2.2242    0.0000 C   0  0  0  0  0  0  0  0  0  0  0  0
   -5.3135    2.9092    0.0000 C   0  0  0  0  0  0  0  0  0  0  0  0
   -4.2182    0.7434    0.0000 C   0  0  0  0  0  0  0  0  0  0  0  0
   -3.5412   -0.5952    0.0000 C   0  0  0  0  0  0  0  0  0  0  0  0
   -2.2067   -1.2802    0.0000 C   0  0  0  0  0  0  0  0  0  0  0  0
  1  2  2  0
  2  3  1  0
  3  4  2  0
  3  5  1  0
  5  6  1  0
  6  7  1  1
  7  8  1  0
  8  9  1  0
  9 10  1  0
 10 11  1  0
 11 12  2  0
 11 13  1  0
 13 14  1  0
 13 15  1  0
  8 16  2  0
 16 17  1  0
 17 18  2  0
 18 19  1  0
 19 20  1  0
 19 21  1  0
 21 22  1  0
 23 22  1  6
 23  2  1  0
 23  6  1  0
M  END
>  <identifier>  (264) 
CNP0209905.1

>  <canonical_smiles>  (264) 
C=C1C(=O)O[C@@H]2C/C(COC(=O)C(C)C)=C\C=C/C(C)CC[C@@H]12

>  <standard_inchi>  (264) 
InChI=1S/C19H26O4/c1-12(2)18(20)22-11-15-7-5-6-13(3)8-9-16-14(4)19(21)23-17(16)10-15/h5-7,12-13,16-17H,4,8-11H2,1-3H3/b6-5-,15-7+/t13?,16-,17+/m0/s1

>  <standard_inchi_key>  (264) 
WEZKIKHPDIXTOZ-LSJUHERESA-N

>  <name>  (264) 
nan

>  <iupac_name>  (264) 
[(3~{a}~{S},7~{Z},9~{E},11~{a}~{R})-6-methyl-3-methylene-2-oxo-3~{a},4,5,6,11,11~{a}-hexahydrocyclodeca[b]furan-10-yl]methyl 2-methylpropanoate

>  <annotation_level>  (264) 
5

>  <total_atom_count>  (264) 
49

>  <heavy_atom_count>  (264) 
23

>  <molecular_weight>  (264) 
318.41

>  <exact_molecular_weight>  (264) 
318.18311

>  <molecular_formula>  (264) 
C19H26O4

>  <alogp>  (264) 
3.59

>  <topological_polar_surface_area>  (264) 
52.60

>  <rotatable_bond_count>  (264) 
3

>  <hydrogen_bond_acceptors>  (264) 
4

>  <hydrogen_bond_donors>  (264) 
0

>  <hydrogen_bond_acceptors_lipinski>  (264) 
4

>  <hydrogen_bond_donors_lipinski>  (264) 
0

>  <lipinski_rule_of_five_violations>  (264) 
0

>  <aromatic_rings_count>  (264) 
0

>  <qed_drug_likeliness>  (264) 
0.59

>  <formal_charge>  (264) 
0

>  <fractioncsp3>  (264) 
0.58

>  <number_of_minimal_rings>  (264) 
2

>  <van_der_walls_volume>  (264) 
311.82

>  <contains_sugar>  (264) 
False

>  <contains_ring_sugars>  (264) 
False

>  <contains_linear_sugars>  (264) 
False

>  <murcko_framework>  (264) 
O1CCC2CCCC=CC=CCC12

>  <np_likeness>  (264) 
2.51

>  <chemical_class>  (264) 
Prenol lipids

>  <chemical_sub_class>  (264) 
Terpene lactones

>  <chemical_super_class>  (264) 
Lipids and lipid-like molecules

>  <direct_parent_classification>  (264) 
Germacranolides and derivatives

>  <np_classifier_pathway>  (264) 
Terpenoids

>  <np_classifier_superclass>  (264) 
Sesquiterpenoids

>  <np_classifier_class>  (264) 
Germacrane sesquiterpenoids

>  <np_classifier_is_glycoside>  (264) 
False

>  <organisms>  (264) 
Cosmos pringlei

>  <collections>  (264) 
BIOFACQUIM|Latin America dataset

>  <dois>  (264) 
10.1021/np010615p

>  <synonyms>  (264) 
15-isobutiroyloxycostunolide

>  <cas>  (264) 
nan

$$$$

     RDKit          2D

 24 25  0  0  0  0  0  0  0  0999 V2000
   -4.3170   -3.3866    0.0000 C   0  0  0  0  0  0  0  0  0  0  0  0
   -2.9596   -2.7482    0.0000 C   0  0  0  0  0  0  0  0  0  0  0  0
   -1.6453   -3.4712    0.0000 C   0  0  0  0  0  0  0  0  0  0  0  0
   -1.4576   -4.9594    0.0000 O   0  0  0  0  0  0  0  0  0  0  0  0
   -0.5516   -2.4446    0.0000 O   0  0  0  0  0  0  0  0  0  0  0  0
   -1.1900   -1.0872    0.0000 C   0  0  0  0  0  0  0  0  0  0  0  0
   -0.0963   -0.0606    0.0000 C   0  0  0  0  0  0  0  0  0  0  0  0
    0.1851    1.4127    0.0000 C   0  0  0  0  0  0  0  0  0  0  0  0
    1.6733    1.6004    0.0000 C   0  0  0  0  0  0  0  0  0  0  0  0
    2.5800    0.4054    0.0000 O   0  0  0  0  0  0  0  0  0  0  0  0
    4.0682    0.5930    0.0000 C   0  0  0  0  0  0  0  0  0  0  0  0
    4.6498    1.9757    0.0000 O   0  0  0  0  0  0  0  0  0  0  0  0
    4.9748   -0.6020    0.0000 C   0  0  0  0  0  0  0  0  0  0  0  0
    6.4630   -0.4143    0.0000 C   0  0  0  0  0  0  0  0  0  0  0  0
    7.3696   -1.6093    0.0000 C   0  0  0  0  0  0  0  0  0  0  0  0
    7.0446    0.9684    0.0000 C   0  0  0  0  0  0  0  0  0  0  0  0
   -0.4532    2.7701    0.0000 C   0  0  0  0  0  0  0  0  0  0  0  0
   -1.7675    3.4930    0.0000 C   0  0  0  0  0  0  0  0  0  0  0  0
   -3.2557    3.3054    0.0000 C   0  0  0  0  0  0  0  0  0  0  0  0
   -4.3494    2.2788    0.0000 C   0  0  0  0  0  0  0  0  0  0  0  0
   -5.6637    3.0018    0.0000 C   0  0  0  0  0  0  0  0  0  0  0  0
   -4.6308    0.8055    0.0000 C   0  0  0  0  0  0  0  0  0  0  0  0
   -3.9925   -0.5519    0.0000 C   0  0  0  0  0  0  0  0  0  0  0  0
   -2.6782   -1.2749    0.0000 C   0  0  0  0  0  0  0  0  0  0  0  0
  1  2  2  0
  2  3  1  0
  3  4  2  0
  3  5  1  0
  5  6  1  0
  6  7  1  1
  7  8  1  0
  8  9  1  0
  9 10  1  0
 10 11  1  0
 11 12  2  0
 11 13  1  0
 13 14  1  0
 14 15  1  0
 14 16  1  0
  8 17  2  0
 17 18  1  0
 18 19  2  0
 19 20  1  0
 20 21  1  0
 20 22  1  0
 22 23  1  0
 24 23  1  6
 24  2  1  0
 24  6  1  0
M  END
>  <identifier>  (265) 
CNP0112156.1

>  <canonical_smiles>  (265) 
C=C1C(=O)O[C@@H]2C/C(COC(=O)CC(C)C)=C\C=C/C(C)CC[C@@H]12

>  <standard_inchi>  (265) 
InChI=1S/C20H28O4/c1-13(2)10-19(21)23-12-16-7-5-6-14(3)8-9-17-15(4)20(22)24-18(17)11-16/h5-7,13-14,17-18H,4,8-12H2,1-3H3/b6-5-,16-7+/t14?,17-,18+/m0/s1

>  <standard_inchi_key>  (265) 
XYYJJFWJWWXIID-DWSJCSSQSA-N

>  <name>  (265) 
nan

>  <iupac_name>  (265) 
[(3~{a}~{S},7~{Z},9~{E},11~{a}~{R})-6-methyl-3-methylene-2-oxo-3~{a},4,5,6,11,11~{a}-hexahydrocyclodeca[b]furan-10-yl]methyl 3-methylbutanoate

>  <annotation_level>  (265) 
5

>  <total_atom_count>  (265) 
52

>  <heavy_atom_count>  (265) 
24

>  <molecular_weight>  (265) 
332.44

>  <exact_molecular_weight>  (265) 
332.19876

>  <molecular_formula>  (265) 
C20H28O4

>  <alogp>  (265) 
3.98

>  <topological_polar_surface_area>  (265) 
52.60

>  <rotatable_bond_count>  (265) 
4

>  <hydrogen_bond_acceptors>  (265) 
4

>  <hydrogen_bond_donors>  (265) 
0

>  <hydrogen_bond_acceptors_lipinski>  (265) 
4

>  <hydrogen_bond_donors_lipinski>  (265) 
0

>  <lipinski_rule_of_five_violations>  (265) 
0

>  <aromatic_rings_count>  (265) 
0

>  <qed_drug_likeliness>  (265) 
0.58

>  <formal_charge>  (265) 
0

>  <fractioncsp3>  (265) 
0.60

>  <number_of_minimal_rings>  (265) 
2

>  <van_der_walls_volume>  (265) 
327.44

>  <contains_sugar>  (265) 
False

>  <contains_ring_sugars>  (265) 
False

>  <contains_linear_sugars>  (265) 
False

>  <murcko_framework>  (265) 
O1CCC2CCCC=CC=CCC12

>  <np_likeness>  (265) 
2.40

>  <chemical_class>  (265) 
Prenol lipids

>  <chemical_sub_class>  (265) 
Terpene lactones

>  <chemical_super_class>  (265) 
Lipids and lipid-like molecules

>  <direct_parent_classification>  (265) 
Germacranolides and derivatives

>  <np_classifier_pathway>  (265) 
Terpenoids

>  <np_classifier_superclass>  (265) 
Sesquiterpenoids

>  <np_classifier_class>  (265) 
Germacrane sesquiterpenoids

>  <np_classifier_is_glycoside>  (265) 
False

>  <organisms>  (265) 
Cosmos pringlei

>  <collections>  (265) 
BIOFACQUIM|Latin America dataset

>  <dois>  (265) 
10.1021/np010615p

>  <synonyms>  (265) 
15-isovaleroyloxycostunolide

>  <cas>  (265) 
nan

$$$$

     RDKit          2D

 16 16  0  0  0  0  0  0  0  0999 V2000
    6.2245    1.5652    0.0000 C   0  0  0  0  0  0  0  0  0  0  0  0
    5.1864    0.4825    0.0000 C   0  0  0  0  0  0  0  0  0  0  0  0
    5.6051   -0.9579    0.0000 C   0  0  0  0  0  0  0  0  0  0  0  0
    3.7297    0.8401    0.0000 C   0  0  0  0  0  0  0  0  0  0  0  0
    2.6916   -0.2427    0.0000 C   0  0  0  0  0  0  0  0  0  0  0  0
    1.2349    0.1149    0.0000 C   0  0  0  0  0  0  0  0  0  0  0  0
    0.1968   -0.9679    0.0000 C   0  0  0  0  0  0  0  0  0  0  0  0
    0.6155   -2.4083    0.0000 C   0  0  0  0  0  0  0  0  0  0  0  0
   -1.2600   -0.6103    0.0000 C   0  0  0  0  0  0  0  0  0  0  0  0
   -2.2980   -1.6931    0.0000 C   0  0  0  0  0  0  0  0  0  0  0  0
   -3.7548   -1.3355    0.0000 C   0  0  0  0  0  0  0  0  0  0  0  0
   -4.1735    0.1049    0.0000 C   0  0  0  0  0  0  0  0  0  0  0  0
   -5.6302    0.4625    0.0000 O   0  0  0  0  0  0  0  0  0  0  0  0
   -3.1354    1.1877    0.0000 C   0  0  0  0  0  0  0  0  0  0  0  0
   -3.5541    2.6280    0.0000 C   0  0  0  0  0  0  0  0  0  0  0  0
   -1.6786    0.8301    0.0000 C   0  0  0  0  0  0  0  0  0  0  0  0
  1  2  1  0
  2  3  1  0
  2  4  2  0
  4  5  1  0
  5  6  1  0
  6  7  1  0
  7  8  1  1
  7  9  1  0
  9 10  2  0
 10 11  1  0
 11 12  2  0
 12 13  1  0
 12 14  1  0
 14 15  1  0
 14 16  2  0
 16  9  1  0
M  END
>  <identifier>  (266) 
CNP0314840.1

>  <canonical_smiles>  (266) 
CC(C)=CCC[C@@H](C)C1=CC=C(O)C(C)=C1

>  <standard_inchi>  (266) 
InChI=1S/C15H22O/c1-11(2)6-5-7-12(3)14-8-9-15(16)13(4)10-14/h6,8-10,12,16H,5,7H2,1-4H3/t12-/m1/s1

>  <standard_inchi_key>  (266) 
AHRNUZBHBAHMHY-GFCCVEGCSA-N

>  <name>  (266) 
2-methyl-4-[(2R)-6-methylhept-5-en-2-yl]phenol

>  <iupac_name>  (266) 
4-[(1~{R})-1,5-dimethylhex-4-enyl]-2-methyl-phenol

>  <annotation_level>  (266) 
5

>  <total_atom_count>  (266) 
38

>  <heavy_atom_count>  (266) 
16

>  <molecular_weight>  (266) 
218.34

>  <exact_molecular_weight>  (266) 
218.16707

>  <molecular_formula>  (266) 
C15H22O

>  <alogp>  (266) 
4.55

>  <topological_polar_surface_area>  (266) 
20.23

>  <rotatable_bond_count>  (266) 
4

>  <hydrogen_bond_acceptors>  (266) 
1

>  <hydrogen_bond_donors>  (266) 
1

>  <hydrogen_bond_acceptors_lipinski>  (266) 
1

>  <hydrogen_bond_donors_lipinski>  (266) 
1

>  <lipinski_rule_of_five_violations>  (266) 
0

>  <aromatic_rings_count>  (266) 
1

>  <qed_drug_likeliness>  (266) 
0.73

>  <formal_charge>  (266) 
0

>  <fractioncsp3>  (266) 
0.47

>  <number_of_minimal_rings>  (266) 
1

>  <van_der_walls_volume>  (266) 
235.94

>  <contains_sugar>  (266) 
False

>  <contains_ring_sugars>  (266) 
False

>  <contains_linear_sugars>  (266) 
False

>  <murcko_framework>  (266) 
c1ccccc1

>  <np_likeness>  (266) 
1.42

>  <chemical_class>  (266) 
Phenols

>  <chemical_sub_class>  (266) 
Cresols

>  <chemical_super_class>  (266) 
Benzenoids

>  <direct_parent_classification>  (266) 
Ortho cresols

>  <np_classifier_pathway>  (266) 
Terpenoids

>  <np_classifier_superclass>  (266) 
Sesquiterpenoids

>  <np_classifier_class>  (266) 
Bisabolane sesquiterpenoids

>  <np_classifier_is_glycoside>  (266) 
False

>  <organisms>  (266) 
Iostephane heterophylla

>  <collections>  (266) 
BIOFACQUIM|Latin America dataset|NPASS|Super Natural II

>  <dois>  (266) 
10.1021/np010076o

>  <synonyms>  (266) 
CHEMBL510595|4-(1' 5'-dimethylhex-4'-enyl)-2-methylphenol

>  <cas>  (266) 
nan

$$$$

     RDKit          2D

 28 32  0  0  0  0  0  0  0  0999 V2000
    8.6387   -0.9175    0.0000 C   0  0  0  0  0  0  0  0  0  0  0  0
    7.6313    0.1939    0.0000 O   0  0  0  0  0  0  0  0  0  0  0  0
    6.1651   -0.1229    0.0000 C   0  0  0  0  0  0  0  0  0  0  0  0
    5.7063   -1.5510    0.0000 C   0  0  0  0  0  0  0  0  0  0  0  0
    4.2401   -1.8677    0.0000 C   0  0  0  0  0  0  0  0  0  0  0  0
    3.2327   -0.7563    0.0000 C   0  0  0  0  0  0  0  0  0  0  0  0
    1.7666   -1.0731    0.0000 C   0  0  0  0  0  0  0  0  0  0  0  0
    1.1610   -2.4454    0.0000 O   0  0  0  0  0  0  0  0  0  0  0  0
   -0.3313   -2.2936    0.0000 C   0  0  0  0  0  0  0  0  0  0  0  0
   -0.6480   -0.8274    0.0000 C   0  0  0  0  0  0  0  0  0  0  0  0
    0.6485   -0.0731    0.0000 C   0  0  0  0  0  0  0  0  0  0  0  0
    0.3318    1.3931    0.0000 C   0  0  0  0  0  0  0  0  0  0  0  0
   -1.1605    1.5450    0.0000 O   0  0  0  0  0  0  0  0  0  0  0  0
   -1.7661    0.1726    0.0000 C   0  0  0  0  0  0  0  0  0  0  0  0
   -3.2322   -0.1441    0.0000 C   0  0  0  0  0  0  0  0  0  0  0  0
   -3.6910   -1.5722    0.0000 C   0  0  0  0  0  0  0  0  0  0  0  0
   -5.1572   -1.8890    0.0000 C   0  0  0  0  0  0  0  0  0  0  0  0
   -6.1646   -0.7776    0.0000 C   0  0  0  0  0  0  0  0  0  0  0  0
   -7.6646   -0.7825    0.0000 O   0  0  0  0  0  0  0  0  0  0  0  0
   -8.1328    0.6425    0.0000 C   0  0  0  0  0  0  0  0  0  0  0  0
   -6.9222    1.5282    0.0000 O   0  0  0  0  0  0  0  0  0  0  0  0
   -5.7058    0.6505    0.0000 C   0  0  0  0  0  0  0  0  0  0  0  0
   -4.2396    0.9673    0.0000 C   0  0  0  0  0  0  0  0  0  0  0  0
   -3.7808    2.3954    0.0000 C   0  0  0  0  0  0  0  0  0  0  0  0
    3.6915    0.6718    0.0000 C   0  0  0  0  0  0  0  0  0  0  0  0
    5.1577    0.9885    0.0000 C   0  0  0  0  0  0  0  0  0  0  0  0
    5.6165    2.4166    0.0000 O   0  0  0  0  0  0  0  0  0  0  0  0
    4.6091    3.5280    0.0000 C   0  0  0  0  0  0  0  0  0  0  0  0
  1  2  1  0
  2  3  1  0
  3  4  2  0
  4  5  1  0
  5  6  2  0
  7  6  1  1
  7  8  1  0
  8  9  1  0
 10  9  1  6
 10 11  1  0
 11 12  1  6
 12 13  1  0
 13 14  1  0
 14 15  1  1
 15 16  2  0
 16 17  1  0
 17 18  2  0
 18 19  1  0
 19 20  1  0
 20 21  1  0
 21 22  1  0
 22 23  2  0
 23 24  1  0
  6 25  1  0
 25 26  2  0
 26 27  1  0
 27 28  1  0
 26  3  1  0
 11  7  1  0
 23 15  1  0
 14 10  1  0
 22 18  1  0
M  END
>  <identifier>  (267) 
CNP0080330.1

>  <canonical_smiles>  (267) 
COC1=CC=C([C@H]2OC[C@H]3[C@@H]2CO[C@@H]3C2=CC=C3OCOC3=C2C)C=C1OC

>  <standard_inchi>  (267) 
InChI=1S/C22H24O6/c1-12-14(5-7-18-20(12)28-11-27-18)22-16-10-25-21(15(16)9-26-22)13-4-6-17(23-2)19(8-13)24-3/h4-8,15-16,21-22H,9-11H2,1-3H3/t15-,16-,21+,22+/m0/s1

>  <standard_inchi_key>  (267) 
MPPQCCFNXBGKFC-RZTYQLBFSA-N

>  <name>  (267) 
5-[(3S,3aR,6S,6aR)-3-(3,4-dimethoxyphenyl)-1,3,3a,4,6,6a-hexahydrofuro[3,4-c]furan-6-yl]-4-methyl-1,3-benzodioxole

>  <iupac_name>  (267) 
5-[(3~{S},3~{a}~{R},6~{S},6~{a}~{R})-3-(3,4-dimethoxyphenyl)-1,3,3~{a},4,6,6~{a}-hexahydrofuro[3,4-c]furan-6-yl]-4-methyl-1,3-benzodioxole

>  <annotation_level>  (267) 
5

>  <total_atom_count>  (267) 
52

>  <heavy_atom_count>  (267) 
28

>  <molecular_weight>  (267) 
384.43

>  <exact_molecular_weight>  (267) 
384.15729

>  <molecular_formula>  (267) 
C22H24O6

>  <alogp>  (267) 
3.82

>  <topological_polar_surface_area>  (267) 
55.38

>  <rotatable_bond_count>  (267) 
4

>  <hydrogen_bond_acceptors>  (267) 
6

>  <hydrogen_bond_donors>  (267) 
0

>  <hydrogen_bond_acceptors_lipinski>  (267) 
6

>  <hydrogen_bond_donors_lipinski>  (267) 
0

>  <lipinski_rule_of_five_violations>  (267) 
0

>  <aromatic_rings_count>  (267) 
2

>  <qed_drug_likeliness>  (267) 
0.80

>  <formal_charge>  (267) 
0

>  <fractioncsp3>  (267) 
0.46

>  <number_of_minimal_rings>  (267) 
5

>  <van_der_walls_volume>  (267) 
340.05

>  <contains_sugar>  (267) 
False

>  <contains_ring_sugars>  (267) 
False

>  <contains_linear_sugars>  (267) 
False

>  <murcko_framework>  (267) 
O1c2ccc(cc2OC1)C3OCC4C(OCC34)c5ccccc5

>  <np_likeness>  (267) 
1.09

>  <chemical_class>  (267) 
Furanoid lignans

>  <chemical_sub_class>  (267) 
Furan lignans

>  <chemical_super_class>  (267) 
Lignans, neolignans and related compounds

>  <direct_parent_classification>  (267) 
Furan lignans

>  <np_classifier_pathway>  (267) 
Shikimates and Phenylpropanoids

>  <np_classifier_superclass>  (267) 
Lignans

>  <np_classifier_class>  (267) 
Furofuranoid lignans

>  <np_classifier_is_glycoside>  (267) 
False

>  <organisms>  (267) 
Leucophyllum ambiguum

>  <collections>  (267) 
BIOFACQUIM|Latin America dataset|NPASS

>  <dois>  (267) 
10.1021/np020346i

>  <synonyms>  (267) 
CHEMBL462821|2'-methoxykobusin

>  <cas>  (267) 
nan

$$$$

     RDKit          2D

 20 21  0  0  0  0  0  0  0  0999 V2000
   -4.4407   -2.7118    0.0000 C   0  0  0  0  0  0  0  0  0  0  0  0
   -3.9511   -1.2939    0.0000 C   0  0  0  0  0  0  0  0  0  0  0  0
   -4.9343   -0.1610    0.0000 C   0  0  0  0  0  0  0  0  0  0  0  0
   -4.4448    1.2569    0.0000 C   0  0  0  0  0  0  0  0  0  0  0  0
   -5.4279    2.3897    0.0000 O   0  0  0  0  0  0  0  0  0  0  0  0
   -2.9721    1.5419    0.0000 C   0  0  0  0  0  0  0  0  0  0  0  0
   -1.9889    0.4090    0.0000 C   0  0  0  0  0  0  0  0  0  0  0  0
   -0.5163    0.6940    0.0000 O   0  0  0  0  0  0  0  0  0  0  0  0
    0.4669   -0.4389    0.0000 C   0  0  0  0  0  0  0  0  0  0  0  0
   -0.0226   -1.8568    0.0000 O   0  0  0  0  0  0  0  0  0  0  0  0
    1.9396   -0.1539    0.0000 C   0  0  0  0  0  0  0  0  0  0  0  0
    2.9227   -1.2868    0.0000 C   0  0  0  0  0  0  0  0  0  0  0  0
    2.4332   -2.7047    0.0000 C   0  0  0  0  0  0  0  0  0  0  0  0
    4.3954   -1.0018    0.0000 C   0  0  0  0  0  0  0  0  0  0  0  0
    4.8849    0.4161    0.0000 C   0  0  0  0  0  0  0  0  0  0  0  0
    6.3576    0.7011    0.0000 O   0  0  0  0  0  0  0  0  0  0  0  0
    3.9018    1.5490    0.0000 C   0  0  0  0  0  0  0  0  0  0  0  0
    2.4291    1.2640    0.0000 C   0  0  0  0  0  0  0  0  0  0  0  0
    1.4459    2.3968    0.0000 O   0  0  0  0  0  0  0  0  0  0  0  0
   -2.4785   -1.0089    0.0000 C   0  0  0  0  0  0  0  0  0  0  0  0
  1  2  1  0
  2  3  2  0
  3  4  1  0
  4  5  1  0
  4  6  2  0
  6  7  1  0
  7  8  1  0
  8  9  1  0
  9 10  2  0
  9 11  1  0
 11 12  2  0
 12 13  1  0
 12 14  1  0
 14 15  2  0
 15 16  1  0
 15 17  1  0
 17 18  2  0
 18 19  1  0
  7 20  2  0
 20  2  1  0
 18 11  1  0
M  END
>  <identifier>  (268) 
CNP0121513.0

>  <canonical_smiles>  (268) 
CC1=CC(O)=CC(OC(=O)C2=C(C)C=C(O)C=C2O)=C1

>  <standard_inchi>  (268) 
InChI=1S/C15H14O5/c1-8-3-10(16)6-12(4-8)20-15(19)14-9(2)5-11(17)7-13(14)18/h3-7,16-18H,1-2H3

>  <standard_inchi_key>  (268) 
LRMGCIMCOOHPQA-UHFFFAOYSA-N

>  <name>  (268) 
lecanorin

>  <iupac_name>  (268) 
(3-hydroxy-5-methyl-phenyl) 2,4-dihydroxy-6-methyl-benzoate

>  <annotation_level>  (268) 
5

>  <total_atom_count>  (268) 
34

>  <heavy_atom_count>  (268) 
20

>  <molecular_weight>  (268) 
274.27

>  <exact_molecular_weight>  (268) 
274.08412

>  <molecular_formula>  (268) 
C15H14O5

>  <alogp>  (268) 
2.64

>  <topological_polar_surface_area>  (268) 
86.99

>  <rotatable_bond_count>  (268) 
2

>  <hydrogen_bond_acceptors>  (268) 
5

>  <hydrogen_bond_donors>  (268) 
3

>  <hydrogen_bond_acceptors_lipinski>  (268) 
5

>  <hydrogen_bond_donors_lipinski>  (268) 
3

>  <lipinski_rule_of_five_violations>  (268) 
0

>  <aromatic_rings_count>  (268) 
2

>  <qed_drug_likeliness>  (268) 
0.58

>  <formal_charge>  (268) 
0

>  <fractioncsp3>  (268) 
0.13

>  <number_of_minimal_rings>  (268) 
2

>  <van_der_walls_volume>  (268) 
241.18

>  <contains_sugar>  (268) 
False

>  <contains_ring_sugars>  (268) 
False

>  <contains_linear_sugars>  (268) 
False

>  <murcko_framework>  (268) 
O(c1ccccc1)Cc2ccccc2

>  <np_likeness>  (268) 
0.77

>  <chemical_class>  (268) 
Depsides and depsidones

>  <chemical_sub_class>  (268) 
Depsides and depsidones

>  <chemical_super_class>  (268) 
Phenylpropanoids and polyketides

>  <direct_parent_classification>  (268) 
Depsides and depsidones

>  <np_classifier_pathway>  (268) 
Polyketides

>  <np_classifier_superclass>  (268) 
Aromatic polyketides

>  <np_classifier_class>  (268) 
Depsides

>  <np_classifier_is_glycoside>  (268) 
False

>  <organisms>  (268) 
Amaranthus hypochondriacus|Lobaria orientalis|Parmotrema tinctorium|Parmotrema tinctorum

>  <collections>  (268) 
BIOFACQUIM|EMNPD|KNApSaCK|Latin America dataset|NPASS|Super Natural II|UNPD (Universal Natural Products Database)

>  <dois>  (268) 
10.1021/acs.jnatprod.6b00465|10.1021/np0001326

>  <synonyms>  (268) 
CHEMBL470647|3-hydroxy-5-methylphenyl 2|4-dihydroxy-6-methylbenzoate|SCHEMBL22799168|benzoic acid| 2|4-dihydroxy-6-methyl-| 3-hydroxy-5-methylphenyl ester|InChI=1\/C15H14O5\/c1-8-3-10(16)6-12(4-8)20-15(19)14-9(2)5-11(17)7-13(14)18\/h3-7|16-18H|1-2H|Lecanorin

>  <cas>  (268) 
nan

$$$$

     RDKit          2D

 27 31  0  0  0  0  0  0  0  0999 V2000
    6.8640   -2.8533    0.0000 C   0  0  0  0  0  0  0  0  0  0  0  0
    7.1486   -1.3806    0.0000 O   0  0  0  0  0  0  0  0  0  0  0  0
    6.0155   -0.3977    0.0000 C   0  0  0  0  0  0  0  0  0  0  0  0
    4.5977   -0.8876    0.0000 C   0  0  0  0  0  0  0  0  0  0  0  0
    3.4646    0.0952    0.0000 C   0  0  0  0  0  0  0  0  0  0  0  0
    2.0469   -0.3947    0.0000 C   0  0  0  0  0  0  0  0  0  0  0  0
    1.6099   -1.8296    0.0000 O   0  0  0  0  0  0  0  0  0  0  0  0
    0.1101   -1.8574    0.0000 C   0  0  0  0  0  0  0  0  0  0  0  0
   -0.3798   -0.4397    0.0000 C   0  0  0  0  0  0  0  0  0  0  0  0
    0.8172    0.4643    0.0000 C   0  0  0  0  0  0  0  0  0  0  0  0
    0.3273    1.8821    0.0000 C   0  0  0  0  0  0  0  0  0  0  0  0
   -1.1725    1.8543    0.0000 O   0  0  0  0  0  0  0  0  0  0  0  0
   -1.6094    0.4193    0.0000 C   0  0  0  0  0  0  0  0  0  0  0  0
   -3.0272   -0.0706    0.0000 C   0  0  0  0  0  0  0  0  0  0  0  0
   -3.3118   -1.5433    0.0000 C   0  0  0  0  0  0  0  0  0  0  0  0
   -4.7295   -2.0332    0.0000 C   0  0  0  0  0  0  0  0  0  0  0  0
   -5.8627   -1.0504    0.0000 C   0  0  0  0  0  0  0  0  0  0  0  0
   -7.3513   -1.2348    0.0000 O   0  0  0  0  0  0  0  0  0  0  0  0
   -7.9867    0.1240    0.0000 C   0  0  0  0  0  0  0  0  0  0  0  0
   -6.8908    1.1482    0.0000 O   0  0  0  0  0  0  0  0  0  0  0  0
   -5.5781    0.4224    0.0000 C   0  0  0  0  0  0  0  0  0  0  0  0
   -4.1603    0.9123    0.0000 C   0  0  0  0  0  0  0  0  0  0  0  0
   -3.8757    2.3850    0.0000 C   0  0  0  0  0  0  0  0  0  0  0  0
    3.7492    1.5680    0.0000 C   0  0  0  0  0  0  0  0  0  0  0  0
    5.1669    2.0579    0.0000 C   0  0  0  0  0  0  0  0  0  0  0  0
    6.3001    1.0750    0.0000 C   0  0  0  0  0  0  0  0  0  0  0  0
    7.7178    1.5649    0.0000 O   0  0  0  0  0  0  0  0  0  0  0  0
  1  2  1  0
  2  3  1  0
  3  4  2  0
  4  5  1  0
  6  5  1  1
  6  7  1  0
  7  8  1  0
  9  8  1  6
  9 10  1  0
 10 11  1  6
 11 12  1  0
 12 13  1  0
 13 14  1  1
 14 15  2  0
 15 16  1  0
 16 17  2  0
 17 18  1  0
 18 19  1  0
 19 20  1  0
 20 21  1  0
 21 22  2  0
 22 23  1  0
  5 24  2  0
 24 25  1  0
 25 26  2  0
 26 27  1  0
 26  3  1  0
 10  6  1  0
 22 14  1  0
 13  9  1  0
 21 17  1  0
M  END
>  <identifier>  (269) 
CNP0080331.1

>  <canonical_smiles>  (269) 
COC1=CC([C@H]2OC[C@H]3[C@@H]2CO[C@@H]3C2=CC=C3OCOC3=C2C)=CC=C1O

>  <standard_inchi>  (269) 
InChI=1S/C21H22O6/c1-11-13(4-6-17-19(11)27-10-26-17)21-15-9-24-20(14(15)8-25-21)12-3-5-16(22)18(7-12)23-2/h3-7,14-15,20-22H,8-10H2,1-2H3/t14-,15-,20+,21+/m0/s1

>  <standard_inchi_key>  (269) 
OFCHTGCBFRTISG-VUEDXXQZSA-N

>  <name>  (269) 
KOBUSIN

>  <iupac_name>  (269) 
4-[(3~{S},3~{a}~{R},6~{S},6~{a}~{R})-6-(4-methyl-1,3-benzodioxol-5-yl)-1,3,3~{a},4,6,6~{a}-hexahydrofuro[3,4-c]furan-3-yl]-2-methoxy-phenol

>  <annotation_level>  (269) 
5

>  <total_atom_count>  (269) 
49

>  <heavy_atom_count>  (269) 
27

>  <molecular_weight>  (269) 
370.4

>  <exact_molecular_weight>  (269) 
370.14164

>  <molecular_formula>  (269) 
C21H22O6

>  <alogp>  (269) 
3.51

>  <topological_polar_surface_area>  (269) 
66.38

>  <rotatable_bond_count>  (269) 
3

>  <hydrogen_bond_acceptors>  (269) 
6

>  <hydrogen_bond_donors>  (269) 
1

>  <hydrogen_bond_acceptors_lipinski>  (269) 
6

>  <hydrogen_bond_donors_lipinski>  (269) 
1

>  <lipinski_rule_of_five_violations>  (269) 
0

>  <aromatic_rings_count>  (269) 
2

>  <qed_drug_likeliness>  (269) 
0.89

>  <formal_charge>  (269) 
0

>  <fractioncsp3>  (269) 
0.43

>  <number_of_minimal_rings>  (269) 
5

>  <van_der_walls_volume>  (269) 
324.04

>  <contains_sugar>  (269) 
False

>  <contains_ring_sugars>  (269) 
False

>  <contains_linear_sugars>  (269) 
False

>  <murcko_framework>  (269) 
O1c2ccc(cc2OC1)C3OCC4C(OCC34)c5ccccc5

>  <np_likeness>  (269) 
1.41

>  <chemical_class>  (269) 
Furanoid lignans

>  <chemical_sub_class>  (269) 
Furan lignans

>  <chemical_super_class>  (269) 
Lignans, neolignans and related compounds

>  <direct_parent_classification>  (269) 
Furan lignans

>  <np_classifier_pathway>  (269) 
Shikimates and Phenylpropanoids

>  <np_classifier_superclass>  (269) 
Lignans

>  <np_classifier_class>  (269) 
Furofuranoid lignans

>  <np_classifier_is_glycoside>  (269) 
False

>  <organisms>  (269) 
Leucophyllum ambiguum|Magnolia praecocissima

>  <collections>  (269) 
BIOFACQUIM|Latin America dataset|NPASS

>  <dois>  (269) 
10.1021/np020346i

>  <synonyms>  (269) 
CHEMBL462823|Kobusin

>  <cas>  (269) 
nan

$$$$

     RDKit          2D

 27 31  0  0  0  0  0  0  0  0999 V2000
    8.4844   -0.9638    0.0000 C   0  0  0  0  0  0  0  0  0  0  0  0
    7.4948    0.1635    0.0000 O   0  0  0  0  0  0  0  0  0  0  0  0
    6.0238   -0.1299    0.0000 C   0  0  0  0  0  0  0  0  0  0  0  0
    5.5423   -1.5506    0.0000 C   0  0  0  0  0  0  0  0  0  0  0  0
    4.0713   -1.8439    0.0000 C   0  0  0  0  0  0  0  0  0  0  0  0
    3.0817   -0.7167    0.0000 C   0  0  0  0  0  0  0  0  0  0  0  0
    1.6107   -1.0101    0.0000 C   0  0  0  0  0  0  0  0  0  0  0  0
    0.9834   -2.3726    0.0000 O   0  0  0  0  0  0  0  0  0  0  0  0
   -0.5063   -2.1971    0.0000 C   0  0  0  0  0  0  0  0  0  0  0  0
   -0.7997   -0.7260    0.0000 C   0  0  0  0  0  0  0  0  0  0  0  0
    0.5087    0.0076    0.0000 C   0  0  0  0  0  0  0  0  0  0  0  0
    0.2153    1.4786    0.0000 C   0  0  0  0  0  0  0  0  0  0  0  0
   -1.2744    1.6541    0.0000 O   0  0  0  0  0  0  0  0  0  0  0  0
   -1.9017    0.2916    0.0000 C   0  0  0  0  0  0  0  0  0  0  0  0
   -3.3727   -0.0018    0.0000 C   0  0  0  0  0  0  0  0  0  0  0  0
   -3.8542   -1.4224    0.0000 C   0  0  0  0  0  0  0  0  0  0  0  0
   -5.3252   -1.7158    0.0000 C   0  0  0  0  0  0  0  0  0  0  0  0
   -6.3148   -0.5886    0.0000 C   0  0  0  0  0  0  0  0  0  0  0  0
   -7.8147   -0.5697    0.0000 O   0  0  0  0  0  0  0  0  0  0  0  0
   -8.2602    0.8626    0.0000 C   0  0  0  0  0  0  0  0  0  0  0  0
   -7.0357    1.7290    0.0000 O   0  0  0  0  0  0  0  0  0  0  0  0
   -5.8333    0.8321    0.0000 C   0  0  0  0  0  0  0  0  0  0  0  0
   -4.3623    1.1255    0.0000 C   0  0  0  0  0  0  0  0  0  0  0  0
    3.5631    0.7039    0.0000 C   0  0  0  0  0  0  0  0  0  0  0  0
    5.0342    0.9973    0.0000 C   0  0  0  0  0  0  0  0  0  0  0  0
    5.5156    2.4180    0.0000 O   0  0  0  0  0  0  0  0  0  0  0  0
    4.5260    3.5452    0.0000 C   0  0  0  0  0  0  0  0  0  0  0  0
  1  2  1  0
  2  3  1  0
  3  4  2  0
  4  5  1  0
  5  6  2  0
  7  6  1  1
  7  8  1  0
  8  9  1  0
 10  9  1  6
 10 11  1  0
 11 12  1  6
 12 13  1  0
 13 14  1  0
 14 15  1  1
 15 16  2  0
 16 17  1  0
 17 18  2  0
 18 19  1  0
 19 20  1  0
 20 21  1  0
 21 22  1  0
 22 23  2  0
  6 24  1  0
 24 25  2  0
 25 26  1  0
 26 27  1  0
 25  3  1  0
 11  7  1  0
 23 15  1  0
 14 10  1  0
 22 18  1  0
M  END
>  <identifier>  (270) 
CNP0140264.1

>  <canonical_smiles>  (270) 
COC1=CC=C([C@H]2OC[C@H]3[C@@H]2CO[C@@H]3C2=CC=C3OCOC3=C2)C=C1OC

>  <standard_inchi>  (270) 
InChI=1S/C21H22O6/c1-22-16-5-3-12(7-18(16)23-2)20-14-9-25-21(15(14)10-24-20)13-4-6-17-19(8-13)27-11-26-17/h3-8,14-15,20-21H,9-11H2,1-2H3/t14-,15-,20+,21+/m0/s1

>  <standard_inchi_key>  (270) 
AWOGQCSIVCQXBT-VUEDXXQZSA-N

>  <name>  (270) 
kobusin

>  <iupac_name>  (270) 
5-[(3~{S},3~{a}~{R},6~{S},6~{a}~{R})-6-(3,4-dimethoxyphenyl)-1,3,3~{a},4,6,6~{a}-hexahydrofuro[3,4-c]furan-3-yl]-1,3-benzodioxole

>  <annotation_level>  (270) 
5

>  <total_atom_count>  (270) 
49

>  <heavy_atom_count>  (270) 
27

>  <molecular_weight>  (270) 
370.4

>  <exact_molecular_weight>  (270) 
370.14164

>  <molecular_formula>  (270) 
C21H22O6

>  <alogp>  (270) 
3.51

>  <topological_polar_surface_area>  (270) 
55.38

>  <rotatable_bond_count>  (270) 
4

>  <hydrogen_bond_acceptors>  (270) 
6

>  <hydrogen_bond_donors>  (270) 
0

>  <hydrogen_bond_acceptors_lipinski>  (270) 
6

>  <hydrogen_bond_donors_lipinski>  (270) 
0

>  <lipinski_rule_of_five_violations>  (270) 
0

>  <aromatic_rings_count>  (270) 
2

>  <qed_drug_likeliness>  (270) 
0.82

>  <formal_charge>  (270) 
0

>  <fractioncsp3>  (270) 
0.43

>  <number_of_minimal_rings>  (270) 
5

>  <van_der_walls_volume>  (270) 
321.76

>  <contains_sugar>  (270) 
False

>  <contains_ring_sugars>  (270) 
False

>  <contains_linear_sugars>  (270) 
False

>  <murcko_framework>  (270) 
O1c2ccc(cc2OC1)C3OCC4C(OCC34)c5ccccc5

>  <np_likeness>  (270) 
0.75

>  <chemical_class>  (270) 
Furanoid lignans

>  <chemical_sub_class>  (270) 
Furan lignans

>  <chemical_super_class>  (270) 
Lignans, neolignans and related compounds

>  <direct_parent_classification>  (270) 
Furan lignans

>  <np_classifier_pathway>  (270) 
Shikimates and Phenylpropanoids

>  <np_classifier_superclass>  (270) 
Lignans

>  <np_classifier_class>  (270) 
Furofuranoid lignans

>  <np_classifier_is_glycoside>  (270) 
False

>  <organisms>  (270) 
Aiouea trinervis|Apis cerana|Aptosimum spinescens|Aristolochia gigantea|Artemisia arborescens|Artemisia argentea|Artemisia gorgonum|Cleome gynandra|Dittrichia viscosa|Eperua bijuga|Eurhynchium striatum|Geranium thunbergii|Gynura japonica|Hyphaene thebaica|Leucophyllum ambiguum|Machilus wangchiana|Magnolia biondii|Magnolia denudata|Magnolia fargesii CHENG|Magnolia kobus|Magnolia kobus var. borealis|Magnolia praecocissima|Magnolia salicifolia|Magnolia sprengeri|Magnolia stellata|Melicope hayesii|Microcos paniculata|Palythoa variabilis|Pandanus boninensis|Pandanus odoratissimus|Penaeus bennettae|Pestalotiopsis adusta|Phelline brachyphylla|Pithomyces graminicola|Podocarpus brevifolius|Polygala gazensis|Quassia amara|Raulinoa echinata|Sassafras albidum|Schoenocaulon officinale|Scomber japonicus|Sticta coronata|Strychnos psilosperma|Teucrium viscidum|Usnea dasopoga|Virola sebifera|Zanthoxylum armatum|Zanthoxylum culantrillo|Zanthoxylum rhetsa|Zanthoxylum simulans|Zanthoxylum valens

>  <collections>  (270) 
AnalytiCon Discovery NPs|Australian natural products|BIOFACQUIM|CMAUP (cCollective molecular activities of useful plants)|ChEBI NPs|ChemSpider NPs|KNApSaCK|Latin America dataset|NPASS|NPEdia|NuBBEDB|Super Natural II|TCMDB-Taiwan (Traditional Chinese Medicine database)|TIPdb (database of Taiwan indigenous plants)|VietHerb

>  <dois>  (270) 
10.1002/1099-1565(200101/02)12:1<64::AID-PCA562>3.0.CO,2-3|10.1002/1099-1565(200101/02)12:1<64::AID-PCA562>3.0.CO;2-3|10.1002/jssc.200700098|10.1007/BF02969300|10.1016/j.jep.2011.09.039|10.1016/j.jep.2013.12.039|10.1016/s0031-9422(96)00720-0|10.1016/s0031-9422(98)00720-1|10.1021/np020346i|10.3390/molecules15129462|10.3390/molecules18011262|10.3390/molecules21060652|10.4238/2014.February.19.8

>  <synonyms>  (270) 
36150-23-9|(+)-Kobusin|(+)-Demethoxyaschantin|(+)-Spinescin|CUR4HUP6JQ|5-(3S|3aR|6S|6aR)-6-(3|4-dimethoxyphenyl)-1|3|3a|4|6|6a-hexahydrofuro3|4-cfuran-3-yl-1|3-benzodioxole|(3abeta|6abeta)-1beta-(3|4-Dimethoxyphenyl)-4beta-(1|3-benzodioxole-5-yl)tetrahydro-1H|3H-furo3|4-cfuran|Methylpiperitol|UNII-CUR4HUP6JQ|(+)-METHYLPIPERITOL|CHEMBL462822|MEGxp0_001295|SCHEMBL17999860|ACon1_001273|DTXSID00189723|CHEBI:133905|HY-N5101|AKOS040760503|FS-6874|NCGC00169511-01|CS-0032366|C17844|1|3-BENZODIOXOLE| 5-((1S|3AR|4S|6AR)-4-(3|4-DIMETHOXYPHENYL)TETRAHYDRO-1H|3H-FURO(3|4-C)FURAN-1-YL)-|5-((1S|3AR|4S|6AR)-4-(3|4-DIMETHOXYPHENYL)TETRAHYDRO-1H|3H-FURO(3|4-C)FURAN-1-YL)-1|3-BENZODIOXOLE|5-((1S|3aR|4S|6aR)-4-(3|4-Dimethoxyphenyl)tetrahydro-1H|3H-furo3|4-cfuran-1-yl)benzod1|3dioxole|5-(1S|3aR|4S|6aR)-4-(3|4-dimethoxyphenyl)-hexahydrofuro3|4-cfuran-1-yl-2H-1|3-benzodioxole|2'-methoxy4''-hydroxydemethoxykobusin|Kobusin|Rel-(7S7S8R8R)-methylpiperitol| (+)-kubosin|spinescin

>  <cas>  (270) 
36150-23-9

$$$$

     RDKit          2D

 30 35  0  0  0  0  0  0  0  0999 V2000
   -5.3626   -3.1352    0.0000 C   0  0  0  0  0  0  0  0  0  0  0  0
   -4.1896   -2.2004    0.0000 O   0  0  0  0  0  0  0  0  0  0  0  0
   -4.4127   -0.7171    0.0000 C   0  0  0  0  0  0  0  0  0  0  0  0
   -3.2396    0.2178    0.0000 C   0  0  0  0  0  0  0  0  0  0  0  0
   -1.8435   -0.3306    0.0000 C   0  0  0  0  0  0  0  0  0  0  0  0
   -1.4666   -1.7825    0.0000 O   0  0  0  0  0  0  0  0  0  0  0  0
    0.0307   -1.8727    0.0000 C   0  0  0  0  0  0  0  0  0  0  0  0
    0.5792   -0.4765    0.0000 C   0  0  0  0  0  0  0  0  0  0  0  0
   -0.5792    0.4765    0.0000 C   0  0  0  0  0  0  0  0  0  0  0  0
   -0.0307    1.8727    0.0000 C   0  0  0  0  0  0  0  0  0  0  0  0
    1.4666    1.7825    0.0000 O   0  0  0  0  0  0  0  0  0  0  0  0
    1.8435    0.3306    0.0000 C   0  0  0  0  0  0  0  0  0  0  0  0
    3.2396   -0.2178    0.0000 C   0  0  0  0  0  0  0  0  0  0  0  0
    3.4627   -1.7011    0.0000 C   0  0  0  0  0  0  0  0  0  0  0  0
    4.8589   -2.2496    0.0000 C   0  0  0  0  0  0  0  0  0  0  0  0
    6.0319   -1.3147    0.0000 C   0  0  0  0  0  0  0  0  0  0  0  0
    7.5116   -1.5609    0.0000 O   0  0  0  0  0  0  0  0  0  0  0  0
    8.2030   -0.2297    0.0000 C   0  0  0  0  0  0  0  0  0  0  0  0
    7.1506    0.8392    0.0000 O   0  0  0  0  0  0  0  0  0  0  0  0
    5.8088    0.1686    0.0000 C   0  0  0  0  0  0  0  0  0  0  0  0
    4.4127    0.7171    0.0000 C   0  0  0  0  0  0  0  0  0  0  0  0
    4.1896    2.2004    0.0000 O   0  0  0  0  0  0  0  0  0  0  0  0
    5.3626    3.1352    0.0000 C   0  0  0  0  0  0  0  0  0  0  0  0
   -3.4627    1.7011    0.0000 C   0  0  0  0  0  0  0  0  0  0  0  0
   -4.8589    2.2496    0.0000 C   0  0  0  0  0  0  0  0  0  0  0  0
   -6.0319    1.3147    0.0000 C   0  0  0  0  0  0  0  0  0  0  0  0
   -5.8088   -0.1686    0.0000 C   0  0  0  0  0  0  0  0  0  0  0  0
   -7.1506   -0.8392    0.0000 O   0  0  0  0  0  0  0  0  0  0  0  0
   -8.2030    0.2297    0.0000 C   0  0  0  0  0  0  0  0  0  0  0  0
   -7.5116    1.5609    0.0000 O   0  0  0  0  0  0  0  0  0  0  0  0
  1  2  1  0
  2  3  1  0
  3  4  2  0
  5  4  1  6
  5  6  1  0
  6  7  1  0
  8  7  1  1
  8  9  1  0
  9 10  1  1
 10 11  1  0
 11 12  1  0
 12 13  1  6
 13 14  2  0
 14 15  1  0
 15 16  2  0
 16 17  1  0
 17 18  1  0
 18 19  1  0
 19 20  1  0
 20 21  2  0
 21 22  1  0
 22 23  1  0
  4 24  1  0
 24 25  2  0
 25 26  1  0
 26 27  2  0
 27 28  1  0
 28 29  1  0
 29 30  1  0
 27  3  1  0
  9  5  1  0
 21 13  1  0
 30 26  1  0
 12  8  1  0
 20 16  1  0
M  END
>  <identifier>  (271) 
CNP0219590.1

>  <canonical_smiles>  (271) 
COC1=C([C@H]2OC[C@H]3[C@@H]2CO[C@@H]3C2=CC=C3OCOC3=C2OC)C=CC2=C1OCO2

>  <standard_inchi>  (271) 
InChI=1S/C22H22O8/c1-23-19-11(3-5-15-21(19)29-9-27-15)17-13-7-26-18(14(13)8-25-17)12-4-6-16-22(20(12)24-2)30-10-28-16/h3-6,13-14,17-18H,7-10H2,1-2H3/t13-,14-,17+,18+/m0/s1

>  <standard_inchi_key>  (271) 
FYIHJFOIIUOEKY-LBTBCDHLSA-N

>  <name>  (271) 
2',2' '-dimethoxysesamin

>  <iupac_name>  (271) 
5-[(3~{S},3~{a}~{R},6~{S},6~{a}~{R})-6-(4-methoxy-1,3-benzodioxol-5-yl)-1,3,3~{a},4,6,6~{a}-hexahydrofuro[3,4-c]furan-3-yl]-4-methoxy-1,3-benzodioxole

>  <annotation_level>  (271) 
5

>  <total_atom_count>  (271) 
52

>  <heavy_atom_count>  (271) 
30

>  <molecular_weight>  (271) 
414.41

>  <exact_molecular_weight>  (271) 
414.13147

>  <molecular_formula>  (271) 
C22H22O8

>  <alogp>  (271) 
3.24

>  <topological_polar_surface_area>  (271) 
73.84

>  <rotatable_bond_count>  (271) 
4

>  <hydrogen_bond_acceptors>  (271) 
8

>  <hydrogen_bond_donors>  (271) 
0

>  <hydrogen_bond_acceptors_lipinski>  (271) 
8

>  <hydrogen_bond_donors_lipinski>  (271) 
0

>  <lipinski_rule_of_five_violations>  (271) 
0

>  <aromatic_rings_count>  (271) 
2

>  <qed_drug_likeliness>  (271) 
0.76

>  <formal_charge>  (271) 
0

>  <fractioncsp3>  (271) 
0.46

>  <number_of_minimal_rings>  (271) 
6

>  <van_der_walls_volume>  (271) 
349.41

>  <contains_sugar>  (271) 
False

>  <contains_ring_sugars>  (271) 
False

>  <contains_linear_sugars>  (271) 
False

>  <murcko_framework>  (271) 
O1c2ccc(cc2OC1)C3OCC4C(OCC34)c5ccc6OCOc6c5

>  <np_likeness>  (271) 
0.82

>  <chemical_class>  (271) 
Furanoid lignans

>  <chemical_sub_class>  (271) 
Furan lignans

>  <chemical_super_class>  (271) 
Lignans, neolignans and related compounds

>  <direct_parent_classification>  (271) 
Furan lignans

>  <np_classifier_pathway>  (271) 
Shikimates and Phenylpropanoids

>  <np_classifier_superclass>  (271) 
Lignans

>  <np_classifier_class>  (271) 
Furofuranoid lignans

>  <np_classifier_is_glycoside>  (271) 
False

>  <organisms>  (271) 
Leucophyllum ambiguum

>  <collections>  (271) 
BIOFACQUIM|Latin America dataset|NPASS|Super Natural II

>  <dois>  (271) 
10.1021/np020346i

>  <synonyms>  (271) 
CHEMBL457941|rac-4-Methoxy-5-4-(4-methoxy-1|3-benzodioxol-5-yl)perhydro- 1H|3H-furo3|4-cfuran-1-yl-1|3-benzodioxole|2' 2''-dimethoxysesamin

>  <cas>  (271) 
nan

$$$$

     RDKit          2D

 34 36  0  0  0  0  0  0  0  0999 V2000
    7.9289   -2.5644    0.0000 C   0  0  0  0  0  0  0  0  0  0  0  0
    6.9596   -1.4197    0.0000 C   0  0  0  0  0  0  0  0  0  0  0  0
    5.4836   -1.6868    0.0000 C   0  0  0  0  0  0  0  0  0  0  0  0
    4.5143   -0.5421    0.0000 C   0  0  0  0  0  0  0  0  0  0  0  0
    3.0382   -0.8092    0.0000 O   0  0  0  0  0  0  0  0  0  0  0  0
    2.0689    0.3356    0.0000 C   0  0  0  0  0  0  0  0  0  0  0  0
    2.5756    1.7474    0.0000 O   0  0  0  0  0  0  0  0  0  0  0  0
    0.5929    0.0685    0.0000 C   0  0  0  0  0  0  0  0  0  0  0  0
   -0.3765    1.2132    0.0000 C   0  0  0  0  0  0  0  0  0  0  0  0
    0.1302    2.6250    0.0000 C   0  0  0  0  0  0  0  0  0  0  0  0
   -1.8525    0.9461    0.0000 C   0  0  0  0  0  0  0  0  0  0  0  0
   -2.3592   -0.4657    0.0000 C   0  0  0  0  0  0  0  0  0  0  0  0
   -3.8352   -0.7328    0.0000 O   0  0  0  0  0  0  0  0  0  0  0  0
   -4.8045    0.4119    0.0000 C   0  0  0  0  0  0  0  0  0  0  0  0
   -4.2978    1.8237    0.0000 O   0  0  0  0  0  0  0  0  0  0  0  0
   -6.2806    0.1448    0.0000 C   0  0  0  0  0  0  0  0  0  0  0  0
   -7.2499    1.2895    0.0000 C   0  0  0  0  0  0  0  0  0  0  0  0
   -6.7432    2.7014    0.0000 C   0  0  0  0  0  0  0  0  0  0  0  0
   -8.7259    1.0224    0.0000 C   0  0  0  0  0  0  0  0  0  0  0  0
   -9.2326   -0.3894    0.0000 C   0  0  0  0  0  0  0  0  0  0  0  0
  -10.7087   -0.6565    0.0000 O   0  0  0  0  0  0  0  0  0  0  0  0
   -8.2633   -1.5341    0.0000 C   0  0  0  0  0  0  0  0  0  0  0  0
   -6.7873   -1.2670    0.0000 C   0  0  0  0  0  0  0  0  0  0  0  0
   -5.8179   -2.4118    0.0000 O   0  0  0  0  0  0  0  0  0  0  0  0
   -1.3899   -1.6105    0.0000 C   0  0  0  0  0  0  0  0  0  0  0  0
    0.0862   -1.3434    0.0000 C   0  0  0  0  0  0  0  0  0  0  0  0
    1.0555   -2.4881    0.0000 O   0  0  0  0  0  0  0  0  0  0  0  0
    5.0210    0.8697    0.0000 C   0  0  0  0  0  0  0  0  0  0  0  0
    6.4970    1.1368    0.0000 C   0  0  0  0  0  0  0  0  0  0  0  0
    7.0037    2.5487    0.0000 O   0  0  0  0  0  0  0  0  0  0  0  0
    7.4663   -0.0079    0.0000 C   0  0  0  0  0  0  0  0  0  0  0  0
    8.9423    0.2592    0.0000 C   0  0  0  0  0  0  0  0  0  0  0  0
    9.9117   -0.8855    0.0000 O   0  0  0  0  0  0  0  0  0  0  0  0
    9.4490    1.6710    0.0000 O   0  0  0  0  0  0  0  0  0  0  0  0
  1  2  1  0
  2  3  2  0
  3  4  1  0
  4  5  1  0
  5  6  1  0
  6  7  2  0
  6  8  1  0
  8  9  2  0
  9 10  1  0
  9 11  1  0
 11 12  2  0
 12 13  1  0
 13 14  1  0
 14 15  2  0
 14 16  1  0
 16 17  2  0
 17 18  1  0
 17 19  1  0
 19 20  2  0
 20 21  1  0
 20 22  1  0
 22 23  2  0
 23 24  1  0
 12 25  1  0
 25 26  2  0
 26 27  1  0
  4 28  2  0
 28 29  1  0
 29 30  1  0
 29 31  2  0
 31 32  1  0
 32 33  2  0
 32 34  1  0
 31  2  1  0
 26  8  1  0
 23 16  1  0
M  END
>  <identifier>  (272) 
CNP0229346.0

>  <canonical_smiles>  (272) 
CC1=CC(OC(=O)C2=C(C)C=C(OC(=O)C3=C(C)C=C(O)C=C3O)C=C2O)=CC(O)=C1C(=O)O

>  <standard_inchi>  (272) 
InChI=1S/C24H20O10/c1-10-4-13(25)7-16(26)20(10)23(31)34-15-6-12(3)21(18(28)9-15)24(32)33-14-5-11(2)19(22(29)30)17(27)8-14/h4-9,25-28H,1-3H3,(H,29,30)

>  <standard_inchi_key>  (272) 
ATQPZSQVWCPVGV-UHFFFAOYSA-N

>  <name>  (272) 
Gyrophoric acid

>  <iupac_name>  (272) 
4-[4-(2,4-dihydroxy-6-methyl-benzoyl)oxy-2-hydroxy-6-methyl-benzoyl]oxy-2-hydroxy-6-methyl-benzoic acid

>  <annotation_level>  (272) 
5

>  <total_atom_count>  (272) 
54

>  <heavy_atom_count>  (272) 
34

>  <molecular_weight>  (272) 
468.41

>  <exact_molecular_weight>  (272) 
468.10565

>  <molecular_formula>  (272) 
C24H20O10

>  <alogp>  (272) 
3.57

>  <topological_polar_surface_area>  (272) 
170.82

>  <rotatable_bond_count>  (272) 
5

>  <hydrogen_bond_acceptors>  (272) 
9

>  <hydrogen_bond_donors>  (272) 
5

>  <hydrogen_bond_acceptors_lipinski>  (272) 
9

>  <hydrogen_bond_donors_lipinski>  (272) 
5

>  <lipinski_rule_of_five_violations>  (272) 
0

>  <aromatic_rings_count>  (272) 
3

>  <qed_drug_likeliness>  (272) 
0.28

>  <formal_charge>  (272) 
0

>  <fractioncsp3>  (272) 
0.13

>  <number_of_minimal_rings>  (272) 
3

>  <van_der_walls_volume>  (272) 
391.78

>  <contains_sugar>  (272) 
False

>  <contains_ring_sugars>  (272) 
False

>  <contains_linear_sugars>  (272) 
False

>  <murcko_framework>  (272) 
O(c1ccccc1)Cc2ccc(OCc3ccccc3)cc2

>  <np_likeness>  (272) 
0.54

>  <chemical_class>  (272) 
Depsides and depsidones

>  <chemical_sub_class>  (272) 
Depsides and depsidones

>  <chemical_super_class>  (272) 
Phenylpropanoids and polyketides

>  <direct_parent_classification>  (272) 
Depsides and depsidones

>  <np_classifier_pathway>  (272) 
Polyketides

>  <np_classifier_superclass>  (272) 
Aromatic polyketides

>  <np_classifier_class>  (272) 
Depsides

>  <np_classifier_is_glycoside>  (272) 
False

>  <organisms>  (272) 
Bulbothrix queenslandica|Gypsophila pacifica|Parmelia saxatilis|Parmotrema tinctorium|Parmotrema tinctorum|Umbilicaria subglabra|Unknown-fungus sp.

>  <collections>  (272) 
Australian natural products|BIOFACQUIM|InterBioScreen Ltd|Latin America dataset|Lichen Database|NPASS|NPAtlas|NPEdia|PubChem NPs|Super Natural II|TCMDB-Taiwan (Traditional Chinese Medicine database)|TCMID (Traditional Chinese Medicine Integrated Database)|UNPD (Universal Natural Products Database)|ZINC NP

>  <dois>  (272) 
10.1017/s0024282974000090|10.1021/np0001326|10.3891/acta.chem.scand.18-0329

>  <synonyms>  (272) 
548-89-0|GYROPHORICACID|NSC646006|BAQ44A6C6H|4-4-(2|4-dihydroxy-6-methylbenzoyl)oxy-2-hydroxy-6-methylbenzoyloxy-2-hydroxy-6-methylbenzoic acid|UNII-BAQ44A6C6H|4-(4-(2|4-DIHYDROXY-6-METHYLBENZOYL)OXY-2-HYDROXY-6-METHYLBENZOYL)OXY-2-HYDROXY-6-METHYLBENZOIC ACID|beta-Resorcylic acid| 6-methyl-| 4-(6-methyl-beta-resorcylate) 4-(6-methyl-beta-resorcylate); NSC 646006|starbld0009598|SpecPlus_000292|Spectrum2_000208|Spectrum4_000891|Spectrum5_001823|KBioGR_001322|MLS000563513|DivK1c_006388|SPBio_000195|CHEMBL470648|SCHEMBL3800330|KBio1_001332|DTXSID30203289|CHEBI:144159|HMS2271K07|HY-N3985|CCG-40001|STL564987|AKOS015965527|NCGC00247583-01|AC-20252|Benzoic acid| 4-((2|4-dihydroxy-6-methylbenzoyl)oxy)-2-hydroxy-6-methyl-| 4-carboxy-3-hydroxy-5-methylphenyl ester|FS-10004|NCI60_015819|SMR000387062|CS-0024568|NS00134224|G12609|Q2244355|B0005-124431|4-{(4-{(2|4-dihydroxy-6-methylphenyl)carbonyloxy}-2-hydroxy-6-methylphenyl)carbonyloxy}-2-hydroxy-6-methylbenzoic acid|Gyrophoric acid

>  <cas>  (272) 
548-89-0

$$$$

     RDKit          2D

 15 15  0  0  0  0  0  0  0  0999 V2000
   -4.1014   -1.6458    0.0000 C   0  0  0  0  0  0  0  0  0  0  0  0
   -2.6326   -1.3415    0.0000 O   0  0  0  0  0  0  0  0  0  0  0  0
   -2.1617    0.0827    0.0000 C   0  0  0  0  0  0  0  0  0  0  0  0
   -3.1597    1.2026    0.0000 O   0  0  0  0  0  0  0  0  0  0  0  0
   -0.6929    0.3871    0.0000 C   0  0  0  0  0  0  0  0  0  0  0  0
   -0.2221    1.8113    0.0000 C   0  0  0  0  0  0  0  0  0  0  0  0
   -1.2201    2.9311    0.0000 C   0  0  0  0  0  0  0  0  0  0  0  0
    1.2467    2.1156    0.0000 C   0  0  0  0  0  0  0  0  0  0  0  0
    2.2446    0.9958    0.0000 C   0  0  0  0  0  0  0  0  0  0  0  0
    3.7134    1.3001    0.0000 O   0  0  0  0  0  0  0  0  0  0  0  0
    1.7738   -0.4284    0.0000 C   0  0  0  0  0  0  0  0  0  0  0  0
    2.7718   -1.5483    0.0000 C   0  0  0  0  0  0  0  0  0  0  0  0
    2.3010   -2.9725    0.0000 O   0  0  0  0  0  0  0  0  0  0  0  0
    0.3050   -0.7328    0.0000 C   0  0  0  0  0  0  0  0  0  0  0  0
   -0.1658   -2.1570    0.0000 O   0  0  0  0  0  0  0  0  0  0  0  0
  1  2  1  0
  2  3  1  0
  3  4  2  0
  3  5  1  0
  5  6  2  0
  6  7  1  0
  6  8  1  0
  8  9  2  0
  9 10  1  0
  9 11  1  0
 11 12  1  0
 12 13  2  0
 11 14  2  0
 14 15  1  0
 14  5  1  0
M  END
>  <identifier>  (273) 
CNP0335226.0

>  <canonical_smiles>  (273) 
COC(=O)C1=C(C)C=C(O)C(C=O)=C1O

>  <standard_inchi>  (273) 
InChI=1S/C10H10O5/c1-5-3-7(12)6(4-11)9(13)8(5)10(14)15-2/h3-4,12-13H,1-2H3

>  <standard_inchi_key>  (273) 
PXFMUVDLJWXOQM-UHFFFAOYSA-N

>  <name>  (273) 
Methyl haematommate

>  <iupac_name>  (273) 
methyl 3-formyl-2,4-dihydroxy-6-methyl-benzoate

>  <annotation_level>  (273) 
5

>  <total_atom_count>  (273) 
25

>  <heavy_atom_count>  (273) 
15

>  <molecular_weight>  (273) 
210.19

>  <exact_molecular_weight>  (273) 
210.05282

>  <molecular_formula>  (273) 
C10H10O5

>  <alogp>  (273) 
1.01

>  <topological_polar_surface_area>  (273) 
83.83

>  <rotatable_bond_count>  (273) 
2

>  <hydrogen_bond_acceptors>  (273) 
5

>  <hydrogen_bond_donors>  (273) 
2

>  <hydrogen_bond_acceptors_lipinski>  (273) 
5

>  <hydrogen_bond_donors_lipinski>  (273) 
2

>  <lipinski_rule_of_five_violations>  (273) 
0

>  <aromatic_rings_count>  (273) 
1

>  <qed_drug_likeliness>  (273) 
0.56

>  <formal_charge>  (273) 
0

>  <fractioncsp3>  (273) 
0.20

>  <number_of_minimal_rings>  (273) 
1

>  <van_der_walls_volume>  (273) 
179.11

>  <contains_sugar>  (273) 
False

>  <contains_ring_sugars>  (273) 
False

>  <contains_linear_sugars>  (273) 
False

>  <murcko_framework>  (273) 
c1ccccc1

>  <np_likeness>  (273) 
1.21

>  <chemical_class>  (273) 
Benzene and substituted derivatives

>  <chemical_sub_class>  (273) 
Benzoic acids and derivatives

>  <chemical_super_class>  (273) 
Benzenoids

>  <direct_parent_classification>  (273) 
p-Hydroxybenzoic acid alkyl esters

>  <np_classifier_pathway>  (273) 
Shikimates and Phenylpropanoids

>  <np_classifier_superclass>  (273) 
Phenolic acids (C6-C1)

>  <np_classifier_class>  (273) 
Simple phenolic acids

>  <np_classifier_is_glycoside>  (273) 
False

>  <organisms>  (273) 
Alectoria vivens|Amaranthus hypochondriacus|Astragalus pectinatus|Coffea pseudozanguebariae|Dasyscyphus nidulus|Diploicia canescens|Fleischmannia hymenophylla|Harungana madagascariensis|Helleborus niger|Johnius belangerii|Parmotrema tinctorium|Parmotrema tinctorum|Pilosella officinarum|Roystonea regia|Solanum coccineum|Stereocaulon paschale|Streptomyces ghanaensis

>  <collections>  (273) 
Australian natural products|BIOFACQUIM|CMAUP (cCollective molecular activities of useful plants)|KNApSaCK|Latin America dataset|Lichen Database|NPASS|PubChem NPs|Super Natural II|TCMID (Traditional Chinese Medicine Integrated Database)|UNPD (Universal Natural Products Database)

>  <dois>  (273) 
10.1016/j.phytochem.2005.03.022|10.1021/acs.jnatprod.6b00831|10.1021/np0001326|10.1021/np9003728

>  <synonyms>  (273) 
34874-90-3|Methyl 3-formyl-2|4-dihydroxy-6-methylbenzoate|CHEMBL470649|Methyl Beta-Orcinol Carboxylate|Methyl hematommate|Benzoic acid| 3-formyl-2|4-dihydroxy-6-methyl-| methyl ester|MLS000697753|DTXSID60343723|CHEBI:144173|PXFMUVDLJWXOQM-UHFFFAOYSA-N|BDBM50241521|SMR000470887|NS00134236|methyl 2|4-dihydroxy-3-formyl-6-methylbenzoate|Q63398814|2|4-Dihydroxy-3-formyl-6-methylbenzoic acid methyl ester

>  <cas>  (273) 
34874-90-3

$$$$

     RDKit          2D

 21 23  0  0  0  0  0  0  0  0999 V2000
   -6.3690   -1.2483    0.0000 C   0  0  0  0  0  0  0  0  0  0  0  0
   -5.0266   -1.9176    0.0000 O   0  0  0  0  0  0  0  0  0  0  0  0
   -3.7758   -1.0897    0.0000 C   0  0  0  0  0  0  0  0  0  0  0  0
   -3.8673    0.4075    0.0000 C   0  0  0  0  0  0  0  0  0  0  0  0
   -2.6165    1.2354    0.0000 C   0  0  0  0  0  0  0  0  0  0  0  0
   -2.7081    2.7326    0.0000 C   0  0  0  0  0  0  0  0  0  0  0  0
   -1.2741    0.5661    0.0000 C   0  0  0  0  0  0  0  0  0  0  0  0
   -0.0233    1.3940    0.0000 C   0  0  0  0  0  0  0  0  0  0  0  0
   -0.1149    2.8912    0.0000 O   0  0  0  0  0  0  0  0  0  0  0  0
    1.3191    0.7247    0.0000 C   0  0  0  0  0  0  0  0  0  0  0  0
    2.5699    1.5527    0.0000 C   0  0  0  0  0  0  0  0  0  0  0  0
    2.4784    3.0499    0.0000 O   0  0  0  0  0  0  0  0  0  0  0  0
    3.9123    0.8834    0.0000 C   0  0  0  0  0  0  0  0  0  0  0  0
    4.0039   -0.6138    0.0000 C   0  0  0  0  0  0  0  0  0  0  0  0
    5.3463   -1.2831    0.0000 O   0  0  0  0  0  0  0  0  0  0  0  0
    5.4379   -2.7803    0.0000 C   0  0  0  0  0  0  0  0  0  0  0  0
    2.7531   -1.4417    0.0000 C   0  0  0  0  0  0  0  0  0  0  0  0
    1.4107   -0.7725    0.0000 C   0  0  0  0  0  0  0  0  0  0  0  0
    0.1599   -1.6004    0.0000 O   0  0  0  0  0  0  0  0  0  0  0  0
   -1.1825   -0.9311    0.0000 C   0  0  0  0  0  0  0  0  0  0  0  0
   -2.4334   -1.7590    0.0000 C   0  0  0  0  0  0  0  0  0  0  0  0
  1  2  1  0
  2  3  1  0
  3  4  2  0
  4  5  1  0
  5  6  1  0
  5  7  2  0
  7  8  1  0
  8  9  2  0
  8 10  1  0
 10 11  2  0
 11 12  1  0
 11 13  1  0
 13 14  2  0
 14 15  1  0
 15 16  1  0
 14 17  1  0
 17 18  2  0
 18 19  1  0
 19 20  1  0
 20 21  2  0
 21  3  1  0
 20  7  1  0
 18 10  1  0
M  END
>  <identifier>  (274) 
CNP0277395.0

>  <canonical_smiles>  (274) 
COC1=CC(C)=C2C(=O)C3=C(O)C=C(OC)C=C3OC2=C1

>  <standard_inchi>  (274) 
InChI=1S/C16H14O5/c1-8-4-9(19-2)6-12-14(8)16(18)15-11(17)5-10(20-3)7-13(15)21-12/h4-7,17H,1-3H3

>  <standard_inchi_key>  (274) 
QDLAGTHXVHQKRE-UHFFFAOYSA-N

>  <name>  (274) 
Lichexanthone

>  <iupac_name>  (274) 
1-hydroxy-3,6-dimethoxy-8-methyl-xanthen-9-one

>  <annotation_level>  (274) 
5

>  <total_atom_count>  (274) 
35

>  <heavy_atom_count>  (274) 
21

>  <molecular_weight>  (274) 
286.28

>  <exact_molecular_weight>  (274) 
286.08412

>  <molecular_formula>  (274) 
C16H14O5

>  <alogp>  (274) 
2.98

>  <topological_polar_surface_area>  (274) 
68.90

>  <rotatable_bond_count>  (274) 
2

>  <hydrogen_bond_acceptors>  (274) 
5

>  <hydrogen_bond_donors>  (274) 
1

>  <hydrogen_bond_acceptors_lipinski>  (274) 
5

>  <hydrogen_bond_donors_lipinski>  (274) 
1

>  <lipinski_rule_of_five_violations>  (274) 
0

>  <aromatic_rings_count>  (274) 
3

>  <qed_drug_likeliness>  (274) 
0.73

>  <formal_charge>  (274) 
0

>  <fractioncsp3>  (274) 
0.19

>  <number_of_minimal_rings>  (274) 
3

>  <van_der_walls_volume>  (274) 
243.62

>  <contains_sugar>  (274) 
False

>  <contains_ring_sugars>  (274) 
False

>  <contains_linear_sugars>  (274) 
False

>  <murcko_framework>  (274) 
O1c2ccccc2Cc3ccccc13

>  <np_likeness>  (274) 
0.88

>  <chemical_class>  (274) 
Benzopyrans

>  <chemical_sub_class>  (274) 
1-benzopyrans

>  <chemical_super_class>  (274) 
Organoheterocyclic compounds

>  <direct_parent_classification>  (274) 
Xanthones

>  <np_classifier_pathway>  (274) 
Polyketides

>  <np_classifier_superclass>  (274) 
Xanthones

>  <np_classifier_class>  (274) 
Methyl xanthones

>  <np_classifier_is_glycoside>  (274) 
False

>  <organisms>  (274) 
Agathis lanceolata|Anthocleista djalonensis|Aspidosperma formosanum|Briareum asbestinum|Cupania cinerea|Cystoseira barbatula|Dracaena concinna|Eminium lehmannii|Flindersia amboinensis|Gustavia hexapetala|Henriettella fascicularis|Isodon amethystoides|Jatropha mahafalensis|Karenia mikimotoi|Laurencia saitoi|Liparis keitaoensis|Mucor spinosus|Neolitsea pulchella|Ophiorrhiza kuroiwae|Oriciopsis glaberrima|Parmelia formosana|Parmotrema tinctorum|Pertusaria sulphurata|Physalis coztomatl|Pseudocyphellaria hirsuta|Rhizophora mucronata|Ruprechtia tangarana|Salvia amplexicaulis|Sibthorpia europaea|Stachyurus praecox|Stevia pilosa|Ursinia anethoides|Vigna angularis|Zanthoxylum tetraspermum

>  <collections>  (274) 
Australian natural products|BIOFACQUIM|CMAUP (cCollective molecular activities of useful plants)|ChEBI NPs|ConMedNP|GNPS (Global Natural Products Social Molecular Networking)|KNApSaCK|Latin America dataset|Marine Natural Products|NPASS|NPEdia|NuBBEDB|Super Natural II|UNPD (Universal Natural Products Database)|ZINC NP|p-ANAPL

>  <dois>  (274) 
10.1016/S0031-9422(00)84426-X|10.1021/np0001326|10.1021/np0300986|10.1021/np030509i|10.1021/np100415m

>  <synonyms>  (274) 
15222-53-4|1-Hydroxy-3|6-dimethoxy-8-methyl-9H-xanthen-9-one|Xanthen-9-one| 1-hydroxy-3|6-dimethoxy-8-methyl-|CHEBI:67821|92O5D9Z07W|LICHEXANTHONE B804322K045|NSC-288657|lichenxanthone|SpecPlus_000071|Spectrum5_001811|DivK1c_006167|UNII-92O5D9Z07W|CHEMBL470650|SCHEMBL4272316|KBio1_001111|DTXSID80164977|QDLAGTHXVHQKRE-UHFFFAOYSA-N|Xanthen-9-one|6-dimethoxy-8-methyl-|1-hydroxy-3|6-dimethoxy-8-methylxanthone|NS00134237|Q27136297|Lichexanthone

>  <cas>  (274) 
15222-53-4

$$$$

     RDKit          2D

 27 28  0  0  0  0  0  0  0  0999 V2000
    2.2154   -4.6897    0.0000 C   0  0  0  0  0  0  0  0  0  0  0  0
    1.1585   -3.6252    0.0000 C   0  0  0  0  0  0  0  0  0  0  0  0
    1.5520   -2.1778    0.0000 C   0  0  0  0  0  0  0  0  0  0  0  0
    0.4951   -1.1133    0.0000 C   0  0  0  0  0  0  0  0  0  0  0  0
    0.8886    0.3342    0.0000 C   0  0  0  0  0  0  0  0  0  0  0  0
   -0.1683    1.3987    0.0000 O   0  0  0  0  0  0  0  0  0  0  0  0
   -1.6185    1.0157    0.0000 C   0  0  0  0  0  0  0  0  0  0  0  0
   -2.0120   -0.4318    0.0000 O   0  0  0  0  0  0  0  0  0  0  0  0
   -3.4623   -0.8148    0.0000 C   0  0  0  0  0  0  0  0  0  0  0  0
   -3.8557   -2.2623    0.0000 C   0  0  0  0  0  0  0  0  0  0  0  0
   -2.7989   -3.3268    0.0000 O   0  0  0  0  0  0  0  0  0  0  0  0
   -4.5191    0.2496    0.0000 C   0  0  0  0  0  0  0  0  0  0  0  0
   -5.9694   -0.1334    0.0000 O   0  0  0  0  0  0  0  0  0  0  0  0
   -6.3628   -1.5809    0.0000 C   0  0  0  0  0  0  0  0  0  0  0  0
   -4.1257    1.6971    0.0000 C   0  0  0  0  0  0  0  0  0  0  0  0
   -5.1825    2.7616    0.0000 O   0  0  0  0  0  0  0  0  0  0  0  0
   -2.6754    2.0801    0.0000 C   0  0  0  0  0  0  0  0  0  0  0  0
   -2.2819    3.5276    0.0000 O   0  0  0  0  0  0  0  0  0  0  0  0
    2.3388    0.7172    0.0000 C   0  0  0  0  0  0  0  0  0  0  0  0
    3.3957   -0.3473    0.0000 C   0  0  0  0  0  0  0  0  0  0  0  0
    4.8460    0.0357    0.0000 C   0  0  0  0  0  0  0  0  0  0  0  0
    5.9028   -1.0287    0.0000 O   0  0  0  0  0  0  0  0  0  0  0  0
    5.5093   -2.4762    0.0000 C   0  0  0  0  0  0  0  0  0  0  0  0
    5.2394    1.4832    0.0000 C   0  0  0  0  0  0  0  0  0  0  0  0
    4.1826    2.5477    0.0000 C   0  0  0  0  0  0  0  0  0  0  0  0
    4.5760    3.9952    0.0000 O   0  0  0  0  0  0  0  0  0  0  0  0
    2.7323    2.1647    0.0000 O   0  0  0  0  0  0  0  0  0  0  0  0
  1  2  1  0
  2  3  1  0
  3  4  1  0
  5  4  1  6
  5  6  1  0
  7  6  1  6
  7  8  1  0
  8  9  1  0
  9 10  1  6
 10 11  1  0
  9 12  1  0
 12 13  1  1
 13 14  1  0
 12 15  1  0
 15 16  1  6
 15 17  1  0
 17 18  1  6
  5 19  1  0
 19 20  1  1
 20 21  1  0
 21 22  1  0
 22 23  1  0
 21 24  2  0
 24 25  1  0
 25 26  2  0
 25 27  1  0
 17  7  1  0
 27 19  1  0
M  END
>  <identifier>  (275) 
CNP0235362.1

>  <canonical_smiles>  (275) 
CCCC[C@H](O[C@@H]1O[C@H](CO)[C@@H](OC)[C@H](O)[C@@H]1O)[C@@H]1CC(OC)=CC(=O)O1

>  <standard_inchi>  (275) 
InChI=1S/C18H30O9/c1-4-5-6-11(12-7-10(23-2)8-14(20)25-12)26-18-16(22)15(21)17(24-3)13(9-19)27-18/h8,11-13,15-19,21-22H,4-7,9H2,1-3H3/t11-,12-,13+,15+,16-,17+,18+/m0/s1

>  <standard_inchi_key>  (275) 
GFAFERGPIWWHDJ-CYGVFTLASA-N

>  <name>  (275) 
Pestalotin 4'-O-methyl-beta-mannopyranoside

>  <iupac_name>  (275) 
(2~{S})-2-[(1~{S})-1-[(2~{R},3~{S},4~{R},5~{S},6~{R})-3,4-dihydroxy-6-(hydroxymethyl)-5-methoxy-tetrahydropyran-2-yl]oxypentyl]-4-methoxy-2,3-dihydropyran-6-one

>  <annotation_level>  (275) 
5

>  <total_atom_count>  (275) 
57

>  <heavy_atom_count>  (275) 
27

>  <molecular_weight>  (275) 
390.43

>  <exact_molecular_weight>  (275) 
390.18898

>  <molecular_formula>  (275) 
C18H30O9

>  <alogp>  (275) 
-0.14

>  <topological_polar_surface_area>  (275) 
123.91

>  <rotatable_bond_count>  (275) 
9

>  <hydrogen_bond_acceptors>  (275) 
9

>  <hydrogen_bond_donors>  (275) 
3

>  <hydrogen_bond_acceptors_lipinski>  (275) 
9

>  <hydrogen_bond_donors_lipinski>  (275) 
3

>  <lipinski_rule_of_five_violations>  (275) 
0

>  <aromatic_rings_count>  (275) 
0

>  <qed_drug_likeliness>  (275) 
0.46

>  <formal_charge>  (275) 
0

>  <fractioncsp3>  (275) 
0.83

>  <number_of_minimal_rings>  (275) 
2

>  <van_der_walls_volume>  (275) 
354.74

>  <contains_sugar>  (275) 
True

>  <contains_ring_sugars>  (275) 
True

>  <contains_linear_sugars>  (275) 
False

>  <murcko_framework>  (275) 
O1CC=CCC1COC2OCCCC2

>  <np_likeness>  (275) 
2.45

>  <chemical_class>  (275) 
Fatty Acyls

>  <chemical_sub_class>  (275) 
Fatty acyl glycosides

>  <chemical_super_class>  (275) 
Lipids and lipid-like molecules

>  <direct_parent_classification>  (275) 
Fatty acyl glycosides of mono- and disaccharides

>  <np_classifier_pathway>  (275) 
Polyketides

>  <np_classifier_superclass>  (275) 
nan

>  <np_classifier_class>  (275) 
nan

>  <np_classifier_is_glycoside>  (275) 
True

>  <organisms>  (275) 
Xylaria feejeensis

>  <collections>  (275) 
BIOFACQUIM|EMNPD|Latin America dataset|NPAtlas

>  <dois>  (275) 
10.1021/np500897y

>  <synonyms>  (275) 
CHEBI:216079|(2S)-2-(1S)-1-(2R|3S|4R|5S|6R)-3|4-dihydroxy-6-(hydroxymethyl)-5-methoxyoxan-2-yloxypentyl-4-methoxy-2|3-dihydropyran-6-one|Pestalotin 4'-O-Methyl-b-mannopyranoside|Pestalotin 4\u201a\u00c4\u2264-O-methyl-\u0152\u2264-mannopyranoside

>  <cas>  (275) 
nan

$$$$

     RDKit          2D

 13 13  0  0  0  0  0  0  0  0999 V2000
    4.1573    0.6811    0.0000 C   0  0  0  0  0  0  0  0  0  0  0  0
    2.6692    0.8700    0.0000 O   0  0  0  0  0  0  0  0  0  0  0  0
    1.7617   -0.3243    0.0000 C   0  0  0  0  0  0  0  0  0  0  0  0
    2.3421   -1.7074    0.0000 O   0  0  0  0  0  0  0  0  0  0  0  0
    0.2736   -0.1354    0.0000 C   0  0  0  0  0  0  0  0  0  0  0  0
   -0.6340   -1.3297    0.0000 C   0  0  0  0  0  0  0  0  0  0  0  0
   -0.0535   -2.7129    0.0000 C   0  0  0  0  0  0  0  0  0  0  0  0
   -2.1221   -1.1409    0.0000 C   0  0  0  0  0  0  0  0  0  0  0  0
   -2.7025    0.2422    0.0000 C   0  0  0  0  0  0  0  0  0  0  0  0
   -4.1906    0.4311    0.0000 O   0  0  0  0  0  0  0  0  0  0  0  0
   -1.7950    1.4365    0.0000 C   0  0  0  0  0  0  0  0  0  0  0  0
   -0.3069    1.2477    0.0000 C   0  0  0  0  0  0  0  0  0  0  0  0
    0.6007    2.4420    0.0000 O   0  0  0  0  0  0  0  0  0  0  0  0
  1  2  1  0
  2  3  1  0
  3  4  2  0
  3  5  1  0
  5  6  2  0
  6  7  1  0
  6  8  1  0
  8  9  2  0
  9 10  1  0
  9 11  1  0
 11 12  2  0
 12 13  1  0
 12  5  1  0
M  END
>  <identifier>  (276) 
CNP0150273.0

>  <canonical_smiles>  (276) 
COC(=O)C1=C(C)C=C(O)C=C1O

>  <standard_inchi>  (276) 
InChI=1S/C9H10O4/c1-5-3-6(10)4-7(11)8(5)9(12)13-2/h3-4,10-11H,1-2H3

>  <standard_inchi_key>  (276) 
NCCWCZLEACWJIN-UHFFFAOYSA-N

>  <name>  (276) 
Methyl orsellinate

>  <iupac_name>  (276) 
methyl 2,4-dihydroxy-6-methyl-benzoate

>  <annotation_level>  (276) 
5

>  <total_atom_count>  (276) 
23

>  <heavy_atom_count>  (276) 
13

>  <molecular_weight>  (276) 
182.18

>  <exact_molecular_weight>  (276) 
182.05791

>  <molecular_formula>  (276) 
C9H10O4

>  <alogp>  (276) 
1.19

>  <topological_polar_surface_area>  (276) 
66.76

>  <rotatable_bond_count>  (276) 
1

>  <hydrogen_bond_acceptors>  (276) 
4

>  <hydrogen_bond_donors>  (276) 
2

>  <hydrogen_bond_acceptors_lipinski>  (276) 
4

>  <hydrogen_bond_donors_lipinski>  (276) 
2

>  <lipinski_rule_of_five_violations>  (276) 
0

>  <aromatic_rings_count>  (276) 
1

>  <qed_drug_likeliness>  (276) 
0.64

>  <formal_charge>  (276) 
0

>  <fractioncsp3>  (276) 
0.22

>  <number_of_minimal_rings>  (276) 
1

>  <van_der_walls_volume>  (276) 
161.60

>  <contains_sugar>  (276) 
False

>  <contains_ring_sugars>  (276) 
False

>  <contains_linear_sugars>  (276) 
False

>  <murcko_framework>  (276) 
c1ccccc1

>  <np_likeness>  (276) 
1.03

>  <chemical_class>  (276) 
Benzene and substituted derivatives

>  <chemical_sub_class>  (276) 
Benzoic acids and derivatives

>  <chemical_super_class>  (276) 
Benzenoids

>  <direct_parent_classification>  (276) 
p-Hydroxybenzoic acid alkyl esters

>  <np_classifier_pathway>  (276) 
Shikimates and Phenylpropanoids

>  <np_classifier_superclass>  (276) 
Phenolic acids (C6-C1)

>  <np_classifier_class>  (276) 
Shikimic acids and derivatives

>  <np_classifier_is_glycoside>  (276) 
False

>  <organisms>  (276) 
Adenanthera pavonina|Alectoria vivens|Amaranthus hypochondriacus|Anemone begoniifolia|Astragalus pectinatus|Clonostachys rosea f. catenulata|Coffea pseudozanguebariae|Cosmos hybridus|Croton plumieri|Dasyscyphus nidulus|Dianella ensifolia|Fleischmannia hymenophylla|Florensia cernua|Flourensia cernua|Helichrysum tomentosulum|Helleborus niger|Johnius belangerii|Melampodium rosei|Panisea uniflora|Parmelia saxatilis|Parmotrema tinctorum|Pilosella officinarum|Pteris polypodioides|Rhodiola crenulata|Rhododendron ferrugineum|Roystonea regia|Solanum coccineum|Streptomyces ghanaensis|Teucrium sandrasicum|Thalictrum fendleri|Umbilicaria hypococcinea|Usnea longissima

>  <collections>  (276) 
BIOFACQUIM|CMAUP (cCollective molecular activities of useful plants)|ChEBI NPs|EMNPD|KNApSaCK|Latin America dataset|NPASS|NPEdia|PubChem NPs|Super Natural II|TCMDB-Taiwan (Traditional Chinese Medicine database)|TCMID (Traditional Chinese Medicine Integrated Database)|TIPdb (database of Taiwan indigenous plants)|UNPD (Universal Natural Products Database)|VietHerb|ZINC NP

>  <dois>  (276) 
10.1021/np0001326|10.1021/np100778k

>  <synonyms>  (276) 
Methyl 2|4-dihydroxy-6-methylbenzoate|3187-58-4|methylorsellinate|Benzoic acid| 2|4-dihydroxy-6-methyl-| methyl ester|orsellinic acid methyl ester|CHEMBL454431|CHEBI:67898|Methyl o-orsellinate|Spectrum2_001751|2|4-Dihydroxy-6-methylbenzoic acid methyl ester|B2WMD7B62Y|.beta.-Resorcylic acid| 6-methyl-| methyl ester|SPECTRUM210925|MLS000728678|SCHEMBL370816|SPBio_001882|Methyl 6-methyl-ss-resorcylate|DTXSID2062901|HMS2267N11|HY-N3270|BDBM50294528|CCG-39451|AKOS000349113|NCGC00095797-01|BS-25248|SMR000470886|CS-0023752|SR-01000761473|BRD-K12202814-001-05-8|Q27136372|Orsellinic acid methyl ester; Orsellinic acid monomethyl ester

>  <cas>  (276) 
3187-58-4

$$$$

     RDKit          2D

  9  9  0  0  0  0  0  0  0  0999 V2000
    3.0000    0.0000    0.0000 C   0  0  0  0  0  0  0  0  0  0  0  0
    1.5000   -0.0000    0.0000 C   0  0  0  0  0  0  0  0  0  0  0  0
    0.7500   -1.2990    0.0000 C   0  0  0  0  0  0  0  0  0  0  0  0
   -0.7500   -1.2990    0.0000 C   0  0  0  0  0  0  0  0  0  0  0  0
   -1.5000   -2.5981    0.0000 O   0  0  0  0  0  0  0  0  0  0  0  0
   -1.5000    0.0000    0.0000 C   0  0  0  0  0  0  0  0  0  0  0  0
   -0.7500    1.2990    0.0000 C   0  0  0  0  0  0  0  0  0  0  0  0
   -1.5000    2.5981    0.0000 O   0  0  0  0  0  0  0  0  0  0  0  0
    0.7500    1.2990    0.0000 C   0  0  0  0  0  0  0  0  0  0  0  0
  1  2  1  0
  2  3  2  0
  3  4  1  0
  4  5  1  0
  4  6  2  0
  6  7  1  0
  7  8  1  0
  7  9  2  0
  9  2  1  0
M  END
>  <identifier>  (277) 
CNP0300146.0

>  <canonical_smiles>  (277) 
CC1=CC(O)=CC(O)=C1

>  <standard_inchi>  (277) 
InChI=1S/C7H8O2/c1-5-2-6(8)4-7(9)3-5/h2-4,8-9H,1H3

>  <standard_inchi_key>  (277) 
OIPPWFOQEKKFEE-UHFFFAOYSA-N

>  <name>  (277) 
Orcinol

>  <iupac_name>  (277) 
5-methylbenzene-1,3-diol

>  <annotation_level>  (277) 
5

>  <total_atom_count>  (277) 
17

>  <heavy_atom_count>  (277) 
9

>  <molecular_weight>  (277) 
124.14

>  <exact_molecular_weight>  (277) 
124.05243

>  <molecular_formula>  (277) 
C7H8O2

>  <alogp>  (277) 
1.41

>  <topological_polar_surface_area>  (277) 
40.46

>  <rotatable_bond_count>  (277) 
0

>  <hydrogen_bond_acceptors>  (277) 
2

>  <hydrogen_bond_donors>  (277) 
2

>  <hydrogen_bond_acceptors_lipinski>  (277) 
2

>  <hydrogen_bond_donors_lipinski>  (277) 
2

>  <lipinski_rule_of_five_violations>  (277) 
0

>  <aromatic_rings_count>  (277) 
1

>  <qed_drug_likeliness>  (277) 
0.55

>  <formal_charge>  (277) 
0

>  <fractioncsp3>  (277) 
0.14

>  <number_of_minimal_rings>  (277) 
1

>  <van_der_walls_volume>  (277) 
117.74

>  <contains_sugar>  (277) 
False

>  <contains_ring_sugars>  (277) 
False

>  <contains_linear_sugars>  (277) 
False

>  <murcko_framework>  (277) 
c1ccccc1

>  <np_likeness>  (277) 
0.87

>  <chemical_class>  (277) 
Phenols

>  <chemical_sub_class>  (277) 
Benzenediols

>  <chemical_super_class>  (277) 
Benzenoids

>  <direct_parent_classification>  (277) 
Resorcinols

>  <np_classifier_pathway>  (277) 
nan

>  <np_classifier_superclass>  (277) 
nan

>  <np_classifier_class>  (277) 
nan

>  <np_classifier_is_glycoside>  (277) 
False

>  <organisms>  (277) 
Acacia confusa|Acanthella acuta|Amaranthus hypochondriacus|Aspergillus sydowii|Astragalus pectinatus|Calypogeia integristipula|Cetraria islandica|Cirsium brevistylum|Coffea pseudozanguebariae|Colletotrichum gloeosporioides|Curculigo orchioides|Dactylorhiza viridis|Davallia mariesii|Desmodium oxyphyllum|Dittrichia viscosa|Erica arborea|Erica umbellata|Fleischmannia hymenophylla|Gentiana dahurica|Ginkgo biloba|Gymnadenia albida|Hemerocallis fulva|Isodon lihsienensis|Johnius belangerii|Lilium maximowiczii|Parmelia tinctorum|Parmotrema tinctorum|Penicillium citrinum|Penicillium sp.|Penicillium sp. HN29-3B1|Phoebe clemensii|Pilosella officinarum|Putterlickia verrucosa|Rhododendron dauricum|Roystonea regia|Rumex patientia|Siphula decumbens|Solanum coccineum|Usnea longissima|Vernonia condensata

>  <collections>  (277) 
Australian natural products|BIOFACQUIM|CMAUP (cCollective molecular activities of useful plants)|ChEBI NPs|ChemSpider NPs|EMNPD|KNApSaCK|Latin America dataset|NPASS|NPAtlas|NPEdia|NuBBEDB|Super Natural II|TCMDB-Taiwan (Traditional Chinese Medicine database)|TCMID (Traditional Chinese Medicine Integrated Database)|UNPD (Universal Natural Products Database)|ZINC NP

>  <dois>  (277) 
10.1021/np0001326|10.1021/np0303916|10.1021/np0704708|10.1021/np200374j|10.1021/np500885f|10.1021/np970367q|10.1021/np980062r|10.1080/14786419.2017.1385020|10.1515/znc-2009-11-1212

>  <synonyms>  (277) 
3|5-Dihydroxytoluene|504-15-4|5-methylbenzene-1|3-diol|5-METHYLRESORCINOL|1|3-Dihydroxy-5-methylbenzene|Orcin|5-Methyl-1|3-benzenediol|1|3-Benzenediol| 5-methyl-|5-Methylresorcin|3-Hydroxy-5-methylphenol|3|5-Toluenediol|Resorcinol| 5-methyl-|Orcinol| 5-methylresorcinol|5-Methyl Resorcinol|Oricinol|MFCD00002291|NSC 12441|5-Methyl-1|3-dihydroxybenzene|CHEBI:16536|5-Methylresorcinol anhydrous|NSC-12441|534PMB3438|Orcinol anhydrous|EINECS 207-984-2|BRN 1071903|AI3-23954|UNII-534PMB3438|5-methyl-resorcinol|resorcinol monohydrate|Orcinol| 97%|ORCINOL MI|WLN: QR CQ E1|SCHEMBL68497|4-06-00-05892 (Beilstein Handbook Reference)|3|5-Dihydroxytoluene Anhydrous|CHEMBL110059|DTXSID2060123|5-methylbenzene-1|3-diol;Orcinol|HY-D0168|BBL027377|BDBM50104667|c0155|s9329|STL146540|AKOS000280922|1|5-DIHYDROXY-3-METHYLBENZENE|CCG-266088|CS-W008652|AC-10290|AS-14515|SY002780|DB-022064|M0426|M1235|NS00032059|EN300-67390|C00727|H11838|O-2990|A828110|Q412476|F0001-1314|Z1079442080|1|3-Dihydroxy-5-methylbenzene; 3|5-Dihydroxytoluene; 5-Methylresorcinol|InChI=1\/C7H8O2\/c1-5-2-6(8)4-7(9)3-5\/h2-4|8-9H|1H|orcinol

>  <cas>  (277) 
504-15-4

$$$$

     RDKit          2D

 15 15  0  0  0  0  0  0  0  0999 V2000
   -5.0287   -0.9280    0.0000 C   0  0  0  0  0  0  0  0  0  0  0  0
   -3.6541   -0.3277    0.0000 C   0  0  0  0  0  0  0  0  0  0  0  0
   -2.4469   -1.2180    0.0000 C   0  0  0  0  0  0  0  0  0  0  0  0
   -1.0723   -0.6176    0.0000 C   0  0  0  0  0  0  0  0  0  0  0  0
   -1.2184    0.8752    0.0000 C   0  0  0  0  0  0  0  0  0  0  0  0
   -0.4592    2.1689    0.0000 C   0  0  0  0  0  0  0  0  0  0  0  0
   -1.4549    3.2907    0.0000 O   0  0  0  0  0  0  0  0  0  0  0  0
    0.9154    2.7692    0.0000 C   0  0  0  0  0  0  0  0  0  0  0  0
    1.9112    1.6474    0.0000 C   0  0  0  0  0  0  0  0  0  0  0  0
    3.3761    1.3251    0.0000 C   0  0  0  0  0  0  0  0  0  0  0  0
    3.5223   -0.1678    0.0000 C   0  0  0  0  0  0  0  0  0  0  0  0
    2.7631   -1.4615    0.0000 C   0  0  0  0  0  0  0  0  0  0  0  0
    1.3884   -2.0618    0.0000 C   0  0  0  0  0  0  0  0  0  0  0  0
    1.5346   -3.5546    0.0000 O   0  0  0  0  0  0  0  0  0  0  0  0
   -0.0765   -1.7395    0.0000 O   0  0  0  0  0  0  0  0  0  0  0  0
  1  2  1  0
  2  3  1  0
  4  3  1  6
  4  5  1  0
  5  6  1  0
  6  7  1  1
  6  8  1  0
  8  9  2  0
  9 10  1  0
 10 11  1  0
 11 12  1  0
 12 13  1  0
 13 14  2  0
 13 15  1  0
 15  4  1  0
M  END
>  <identifier>  (278) 
CNP0300083.1

>  <canonical_smiles>  (278) 
CCC[C@@H]1C[C@@H](O)/C=C/CCCC(=O)O1

>  <standard_inchi>  (278) 
InChI=1S/C12H20O3/c1-2-6-11-9-10(13)7-4-3-5-8-12(14)15-11/h4,7,10-11,13H,2-3,5-6,8-9H2,1H3/b7-4+/t10-,11+/m0/s1

>  <standard_inchi_key>  (278) 
IWZXZFNLDPFUKQ-NAJRYUOPSA-N

>  <name>  (278) 
Herbarumin III

>  <iupac_name>  (278) 
(2~{R},4~{R},5~{E})-4-hydroxy-2-propyl-2,3,4,7,8,9-hexahydrooxecin-10-one

>  <annotation_level>  (278) 
5

>  <total_atom_count>  (278) 
35

>  <heavy_atom_count>  (278) 
15

>  <molecular_weight>  (278) 
212.29

>  <exact_molecular_weight>  (278) 
212.14124

>  <molecular_formula>  (278) 
C12H20O3

>  <alogp>  (278) 
2.19

>  <topological_polar_surface_area>  (278) 
46.53

>  <rotatable_bond_count>  (278) 
2

>  <hydrogen_bond_acceptors>  (278) 
3

>  <hydrogen_bond_donors>  (278) 
1

>  <hydrogen_bond_acceptors_lipinski>  (278) 
3

>  <hydrogen_bond_donors_lipinski>  (278) 
1

>  <lipinski_rule_of_five_violations>  (278) 
0

>  <aromatic_rings_count>  (278) 
0

>  <qed_drug_likeliness>  (278) 
0.56

>  <formal_charge>  (278) 
0

>  <fractioncsp3>  (278) 
0.75

>  <number_of_minimal_rings>  (278) 
1

>  <van_der_walls_volume>  (278) 
212.93

>  <contains_sugar>  (278) 
False

>  <contains_ring_sugars>  (278) 
False

>  <contains_linear_sugars>  (278) 
False

>  <murcko_framework>  (278) 
O1CCCC=CCCCC1

>  <np_likeness>  (278) 
2.51

>  <chemical_class>  (278) 
Oxocins

>  <chemical_sub_class>  (278) 
Oxocins

>  <chemical_super_class>  (278) 
Organoheterocyclic compounds

>  <direct_parent_classification>  (278) 
Oxocins

>  <np_classifier_pathway>  (278) 
Polyketides

>  <np_classifier_superclass>  (278) 
Macrolides

>  <np_classifier_class>  (278) 
Macrolide lactones

>  <np_classifier_is_glycoside>  (278) 
False

>  <organisms>  (278) 
Phoma herbarum

>  <collections>  (278) 
BIOFACQUIM|KNApSaCK|Latin America dataset|NPASS|Super Natural II

>  <dois>  (278) 
10.1021/np020501t

>  <synonyms>  (278) 
(2R|4R|5E)-4-hydroxy-2-propyl-2|3|4|7|8|9-hexahydrooxecin-10-one|CHEMBL448932|IWZXZFNLDPFUKQ-NAJRYUOPSA-|CHEBI:205802|(7R|9R)-7-hydroxy-9-propyl-5-nonen-9-olide|InChI=1\/C12H20O3\/c1-2-6-11-9-10(13)7-4-3-5-8-12(14)15-11\/h4|7|10-11|13H|2-3|5-6|8-9H2|1H3\/b7-4+\/t10-|11+\/m0\/s1|Herbarumin III

>  <cas>  (278) 
nan

$$$$

     RDKit          2D

 16 16  0  0  0  0  0  0  0  0999 V2000
   -5.0927   -0.0009    0.0000 C   0  0  0  0  0  0  0  0  0  0  0  0
   -3.6369    0.3604    0.0000 C   0  0  0  0  0  0  0  0  0  0  0  0
   -2.5961   -0.7197    0.0000 C   0  0  0  0  0  0  0  0  0  0  0  0
   -1.1402   -0.3584    0.0000 C   0  0  0  0  0  0  0  0  0  0  0  0
   -1.0340    1.1378    0.0000 O   0  0  0  0  0  0  0  0  0  0  0  0
   -0.0686    2.2858    0.0000 C   0  0  0  0  0  0  0  0  0  0  0  0
   -0.8621    3.5588    0.0000 O   0  0  0  0  0  0  0  0  0  0  0  0
    1.3873    2.6471    0.0000 C   0  0  0  0  0  0  0  0  0  0  0  0
    2.7774    2.0837    0.0000 C   0  0  0  0  0  0  0  0  0  0  0  0
    3.5709    0.8108    0.0000 C   0  0  0  0  0  0  0  0  0  0  0  0
    3.4647   -0.6854    0.0000 C   0  0  0  0  0  0  0  0  0  0  0  0
    2.0088   -1.0467    0.0000 C   0  0  0  0  0  0  0  0  0  0  0  0
    1.0434   -2.1948    0.0000 C   0  0  0  0  0  0  0  0  0  0  0  0
    1.8369   -3.4677    0.0000 O   0  0  0  0  0  0  0  0  0  0  0  0
   -0.3467   -1.6314    0.0000 C   0  0  0  0  0  0  0  0  0  0  0  0
   -1.3122   -2.7794    0.0000 O   0  0  0  0  0  0  0  0  0  0  0  0
  1  2  1  0
  2  3  1  0
  4  3  1  1
  4  5  1  0
  5  6  1  0
  6  7  2  0
  6  8  1  0
  8  9  1  0
  9 10  1  0
 10 11  1  0
 11 12  2  0
 12 13  1  0
 13 14  1  6
 13 15  1  0
 15 16  1  6
 15  4  1  0
M  END
>  <identifier>  (279) 
CNP0158020.1

>  <canonical_smiles>  (279) 
CCC[C@H]1OC(=O)CCC/C=C/[C@H](O)[C@@H]1O

>  <standard_inchi>  (279) 
InChI=1S/C12H20O4/c1-2-6-10-12(15)9(13)7-4-3-5-8-11(14)16-10/h4,7,9-10,12-13,15H,2-3,5-6,8H2,1H3/b7-4+/t9-,10+,12-/m0/s1

>  <standard_inchi_key>  (279) 
IZFXFVSOQMEZKB-MNFMDYEBSA-N

>  <name>  (279) 
HERBARUMIN I

>  <iupac_name>  (279) 
(2~{R},3~{S},4~{S},5~{E})-3,4-dihydroxy-2-propyl-2,3,4,7,8,9-hexahydrooxecin-10-one

>  <annotation_level>  (279) 
5

>  <total_atom_count>  (279) 
36

>  <heavy_atom_count>  (279) 
16

>  <molecular_weight>  (279) 
228.29

>  <exact_molecular_weight>  (279) 
228.13616

>  <molecular_formula>  (279) 
C12H20O4

>  <alogp>  (279) 
1.16

>  <topological_polar_surface_area>  (279) 
66.76

>  <rotatable_bond_count>  (279) 
2

>  <hydrogen_bond_acceptors>  (279) 
4

>  <hydrogen_bond_donors>  (279) 
2

>  <hydrogen_bond_acceptors_lipinski>  (279) 
4

>  <hydrogen_bond_donors_lipinski>  (279) 
2

>  <lipinski_rule_of_five_violations>  (279) 
0

>  <aromatic_rings_count>  (279) 
0

>  <qed_drug_likeliness>  (279) 
0.55

>  <formal_charge>  (279) 
0

>  <fractioncsp3>  (279) 
0.75

>  <number_of_minimal_rings>  (279) 
1

>  <van_der_walls_volume>  (279) 
222.13

>  <contains_sugar>  (279) 
False

>  <contains_ring_sugars>  (279) 
False

>  <contains_linear_sugars>  (279) 
False

>  <murcko_framework>  (279) 
O1CCCC=CCCCC1

>  <np_likeness>  (279) 
2.60

>  <chemical_class>  (279) 
Oxocins

>  <chemical_sub_class>  (279) 
Oxocins

>  <chemical_super_class>  (279) 
Organoheterocyclic compounds

>  <direct_parent_classification>  (279) 
Oxocins

>  <np_classifier_pathway>  (279) 
Polyketides

>  <np_classifier_superclass>  (279) 
Macrolides

>  <np_classifier_class>  (279) 
Macrolide lactones

>  <np_classifier_is_glycoside>  (279) 
False

>  <organisms>  (279) 
Phoma herbarum

>  <collections>  (279) 
BIOFACQUIM|KNApSaCK|Latin America dataset|NPASS|Super Natural II

>  <dois>  (279) 
10.1021/np020501t

>  <synonyms>  (279) 
CHEMBL453686|IZFXFVSOQMEZKB-MNFMDYEBSA-|InChI=1\/C12H20O4\/c1-2-6-10-12(15)9(13)7-4-3-5-8-11(14)16-10\/h4|7|9-10|12-13|15H|2-3|5-6|8H2|1H3\/b7-4+\/t9-|10+|12-\/m0\/s1|Herbarumin I

>  <cas>  (279) 
nan

$$$$

     RDKit          2D

 17 17  0  0  0  0  0  0  0  0999 V2000
    5.0515   -1.1751    0.0000 C   0  0  0  0  0  0  0  0  0  0  0  0
    3.5523   -1.1264    0.0000 C   0  0  0  0  0  0  0  0  0  0  0  0
    2.8449    0.1963    0.0000 C   0  0  0  0  0  0  0  0  0  0  0  0
    1.3457    0.2450    0.0000 C   0  0  0  0  0  0  0  0  0  0  0  0
    0.8360   -1.1657    0.0000 O   0  0  0  0  0  0  0  0  0  0  0  0
   -0.4055   -2.0075    0.0000 C   0  0  0  0  0  0  0  0  0  0  0  0
    0.0115   -3.4484    0.0000 O   0  0  0  0  0  0  0  0  0  0  0  0
   -1.9047   -1.9588    0.0000 C   0  0  0  0  0  0  0  0  0  0  0  0
   -2.4143   -3.3696    0.0000 O   0  0  0  0  0  0  0  0  0  0  0  0
   -3.0889   -1.0382    0.0000 C   0  0  0  0  0  0  0  0  0  0  0  0
   -3.5059    0.4027    0.0000 C   0  0  0  0  0  0  0  0  0  0  0  0
   -2.9963    1.8135    0.0000 C   0  0  0  0  0  0  0  0  0  0  0  0
   -1.4971    1.7647    0.0000 C   0  0  0  0  0  0  0  0  0  0  0  0
   -0.2555    2.6065    0.0000 C   0  0  0  0  0  0  0  0  0  0  0  0
   -0.6725    4.0474    0.0000 O   0  0  0  0  0  0  0  0  0  0  0  0
    0.9287    1.6859    0.0000 C   0  0  0  0  0  0  0  0  0  0  0  0
    2.1702    2.5277    0.0000 O   0  0  0  0  0  0  0  0  0  0  0  0
  1  2  1  0
  2  3  1  0
  4  3  1  1
  4  5  1  0
  5  6  1  0
  6  7  2  0
  6  8  1  0
  8  9  1  6
  8 10  1  0
 10 11  1  0
 11 12  1  0
 12 13  2  0
 13 14  1  0
 14 15  1  6
 14 16  1  0
 16 17  1  6
 16  4  1  0
M  END
>  <identifier>  (280) 
CNP0374713.1

>  <canonical_smiles>  (280) 
CCC[C@H]1OC(=O)[C@H](O)CC/C=C/[C@H](O)[C@@H]1O

>  <standard_inchi>  (280) 
InChI=1S/C12H20O5/c1-2-5-10-11(15)8(13)6-3-4-7-9(14)12(16)17-10/h3,6,8-11,13-15H,2,4-5,7H2,1H3/b6-3+/t8-,9+,10+,11-/m0/s1

>  <standard_inchi_key>  (280) 
KQJGPGHQDDZVHJ-ZFOCBLLKSA-N

>  <name>  (280) 
KQJGPGHQDDZVHJ-ZFOCBLLKSA-

>  <iupac_name>  (280) 
(2~{R},3~{S},4~{S},5~{E},9~{R})-3,4,9-trihydroxy-2-propyl-2,3,4,7,8,9-hexahydrooxecin-10-one

>  <annotation_level>  (280) 
5

>  <total_atom_count>  (280) 
37

>  <heavy_atom_count>  (280) 
17

>  <molecular_weight>  (280) 
244.29

>  <exact_molecular_weight>  (280) 
244.13107

>  <molecular_formula>  (280) 
C12H20O5

>  <alogp>  (280) 
0.13

>  <topological_polar_surface_area>  (280) 
86.99

>  <rotatable_bond_count>  (280) 
2

>  <hydrogen_bond_acceptors>  (280) 
5

>  <hydrogen_bond_donors>  (280) 
3

>  <hydrogen_bond_acceptors_lipinski>  (280) 
5

>  <hydrogen_bond_donors_lipinski>  (280) 
3

>  <lipinski_rule_of_five_violations>  (280) 
0

>  <aromatic_rings_count>  (280) 
0

>  <qed_drug_likeliness>  (280) 
0.47

>  <formal_charge>  (280) 
0

>  <fractioncsp3>  (280) 
0.75

>  <number_of_minimal_rings>  (280) 
1

>  <van_der_walls_volume>  (280) 
230.32

>  <contains_sugar>  (280) 
False

>  <contains_ring_sugars>  (280) 
False

>  <contains_linear_sugars>  (280) 
False

>  <murcko_framework>  (280) 
O1CCCC=CCCCC1

>  <np_likeness>  (280) 
2.45

>  <chemical_class>  (280) 
Oxocins

>  <chemical_sub_class>  (280) 
Oxocins

>  <chemical_super_class>  (280) 
Organoheterocyclic compounds

>  <direct_parent_classification>  (280) 
Oxocins

>  <np_classifier_pathway>  (280) 
Polyketides

>  <np_classifier_superclass>  (280) 
Macrolides

>  <np_classifier_class>  (280) 
Macrolide lactones

>  <np_classifier_is_glycoside>  (280) 
False

>  <organisms>  (280) 
Phoma herbarum

>  <collections>  (280) 
BIOFACQUIM|Latin America dataset|NPASS|Super Natural II

>  <dois>  (280) 
10.1021/np020501t

>  <synonyms>  (280) 
herbarumin II|CHEMBL446877|(2R|3S|4S|5E|9R)-3|4|9-trihydroxy-2-propyl-2|3|4|7|8|9-hexahydrooxecin-10-one|InChI=1\/C12H20O5\/c1-2-5-10-11(15)8(13)6-3-4-7-9(14)12(16)17-10\/h3|6|8-11|13-15H|2|4-5|7H2|1H3\/b6-3+\/t8-|9+|10+|11-\/m0\/s1

>  <cas>  (280) 
nan

$$$$

     RDKit          2D

 19 18  0  0  0  0  0  0  0  0999 V2000
    9.6384    1.8445    0.0000 C   0  0  0  0  0  0  0  0  0  0  0  0
    8.1491    1.6659    0.0000 C   0  0  0  0  0  0  0  0  0  0  0  0
    7.5591    0.2868    0.0000 C   0  0  0  0  0  0  0  0  0  0  0  0
    8.4584   -0.9137    0.0000 O   0  0  0  0  0  0  0  0  0  0  0  0
    6.0698    0.1082    0.0000 C   0  0  0  0  0  0  0  0  0  0  0  0
    4.5804   -0.0704    0.0000 C   0  0  0  0  0  0  0  0  0  0  0  0
    3.0911   -0.2490    0.0000 C   0  0  0  0  0  0  0  0  0  0  0  0
    1.6018   -0.4276    0.0000 C   0  0  0  0  0  0  0  0  0  0  0  0
    0.1125   -0.6063    0.0000 C   0  0  0  0  0  0  0  0  0  0  0  0
   -0.7869    0.5942    0.0000 O   0  0  0  0  0  0  0  0  0  0  0  0
   -0.4775   -1.9854    0.0000 C   0  0  0  0  0  0  0  0  0  0  0  0
   -1.9668   -2.1640    0.0000 C   0  0  0  0  0  0  0  0  0  0  0  0
   -2.8662   -0.9635    0.0000 C   0  0  0  0  0  0  0  0  0  0  0  0
   -4.3555   -1.1421    0.0000 C   0  0  0  0  0  0  0  0  0  0  0  0
   -5.2549    0.0584    0.0000 C   0  0  0  0  0  0  0  0  0  0  0  0
   -6.7442   -0.1202    0.0000 C   0  0  0  0  0  0  0  0  0  0  0  0
   -7.6435    1.0803    0.0000 C   0  0  0  0  0  0  0  0  0  0  0  0
   -9.1329    0.9017    0.0000 C   0  0  0  0  0  0  0  0  0  0  0  0
  -10.0322    2.1022    0.0000 C   0  0  0  0  0  0  0  0  0  0  0  0
  1  2  2  0
  2  3  1  0
  3  4  1  1
  3  5  1  0
  5  6  3  0
  6  7  1  0
  7  8  3  0
  8  9  1  0
  9 10  1  6
  9 11  1  0
 11 12  2  0
 12 13  1  0
 13 14  1  0
 14 15  1  0
 15 16  1  0
 16 17  1  0
 17 18  1  0
 18 19  1  0
M  END
>  <identifier>  (281) 
CNP0229318.1

>  <canonical_smiles>  (281) 
C=C[C@@H](O)C#CC#C[C@@H](O)/C=C\CCCCCCC

>  <standard_inchi>  (281) 
InChI=1S/C17H24O2/c1-3-5-6-7-8-9-10-14-17(19)15-12-11-13-16(18)4-2/h4,10,14,16-19H,2-3,5-9H2,1H3/b14-10-/t16-,17+/m1/s1

>  <standard_inchi_key>  (281) 
QWCNQXNAFCBLLV-YWALDVPYSA-N

>  <name>  (281) 
Falcarindiol

>  <iupac_name>  (281) 
(3~{R},8~{S},9~{Z})-heptadeca-1,9-dien-4,6-diyne-3,8-diol

>  <annotation_level>  (281) 
5

>  <total_atom_count>  (281) 
43

>  <heavy_atom_count>  (281) 
19

>  <molecular_weight>  (281) 
260.38

>  <exact_molecular_weight>  (281) 
260.17763

>  <molecular_formula>  (281) 
C17H24O2

>  <alogp>  (281) 
2.82

>  <topological_polar_surface_area>  (281) 
40.46

>  <rotatable_bond_count>  (281) 
8

>  <hydrogen_bond_acceptors>  (281) 
2

>  <hydrogen_bond_donors>  (281) 
2

>  <hydrogen_bond_acceptors_lipinski>  (281) 
2

>  <hydrogen_bond_donors_lipinski>  (281) 
2

>  <lipinski_rule_of_five_violations>  (281) 
0

>  <aromatic_rings_count>  (281) 
0

>  <qed_drug_likeliness>  (281) 
0.40

>  <formal_charge>  (281) 
0

>  <fractioncsp3>  (281) 
0.53

>  <number_of_minimal_rings>  (281) 
0

>  <van_der_walls_volume>  (281) 
278.34

>  <contains_sugar>  (281) 
False

>  <contains_ring_sugars>  (281) 
False

>  <contains_linear_sugars>  (281) 
False

>  <murcko_framework>  (281) 
nan

>  <np_likeness>  (281) 
2.39

>  <chemical_class>  (281) 
Fatty Acyls

>  <chemical_sub_class>  (281) 
Fatty alcohols

>  <chemical_super_class>  (281) 
Lipids and lipid-like molecules

>  <direct_parent_classification>  (281) 
Long-chain fatty alcohols

>  <np_classifier_pathway>  (281) 
Fatty acids

>  <np_classifier_superclass>  (281) 
Fatty acyls

>  <np_classifier_class>  (281) 
Fatty alcohols

>  <np_classifier_is_glycoside>  (281) 
False

>  <organisms>  (281) 
Aegopodium podagraria L.|Anethum graveolens L.|Angelica acutiloba|Angelica dahurica|Angelica decursiva|Angelica furcijuga|Angelica gigas|Angelica keiskei|Angelica sinensis|Anthriscus cerefolium (L.) Hoffm.|Anthriscus sylvestris (L.) Hoffm.|Apium graveolens L.|Aralia elata (Miq.) Seem.|Aralia fargesii|Brunsvigia orientalis|Chaerophyllum hirsutum|Cicuta virosa|Cicuta virosa L.|Cnidium officinale|Crithmum maritimum|Daucus carota|Daucus carota subsp. carota|Daucus carota subsp. sativus (Hoffm.) Schuebl. & G. Martens|Dendropanax arboreus|Desmanthodium guatemalense|Glehnia littoralis|Hansenia forbesii|Hansenia weberbaueriana|Hedera helix L.|Helichrysum oxyphyllum|Levisticum officinale W. D. J. Koch|Ligusticum sinense|Lycopersicon esculentum Mill.|Oplopanax horridus|Ostericum grosseserratum|Panax ginseng|Parmelia weberi|Pastinaca sativa L.|Peucedanum praeruptorum|Piscidia piscipula|Seseli grandivittatum|Streptomyces roseiscleroticus

>  <collections>  (281) 
ANPDB|BIOFACQUIM|CMAUP (cCollective molecular activities of useful plants)|Latin America dataset|NANPDB (Natural Products from Northern African Sources)|NPACT|NPASS|Super Natural II|TCMDB-Taiwan (Traditional Chinese Medicine database)|TIPdb (database of Taiwan indigenous plants)|TPPT (Toxic Plants–PhytoToxins)|VietHerb

>  <dois>  (281) 
10.1002/food.19880321030|10.1016/j.jpba.2006.01.057|10.1016/j.phytochem.2003.11.010|10.1016/j.phytochem.2005.05.010|10.1016/s0040-4020(01)83330-5|10.1021/acs.jnatprod.0c00642

>  <synonyms>  (281) 
225110-25-8|(+)-(3R|8S)-Falcarindiol|(3S|8S)-Falcarindiol|(3R|8S|9Z)-heptadeca-1|9-dien-4|6-diyne-3|8-diol|AC1NQY3Z|CHEMBL69018|55297-87-5|1|9-Heptadecadiene-4|6-diyne-3|8-diol|Heptadeca-1|9-diene-4|6-diyne-3|8-diol|1|9-Heptadecadiene-4|6-diyne-3|8-diol| (3R|8S|9Z)-|SCHEMBL40935|(3R|8S|9Z)-1|9-Heptadecadiene-4|6-diyne-3|8-diol|EX-A8013E|QWCNQXNAFCBLLV-YWALDVPYSA-N|DTXSID701030449|HY-N1976|BDBM50071370|LMFA05000658|s3292|AKOS032948569|MS-23671|CS-0018296|C08449|G60922|A878521|Q-100631|Q5431681|(Z)-(3R|8S)-Heptadeca-1|9-diene-4|6-diyne-3|8-diol|Falcarindiol

>  <cas>  (281) 
225110-25-8|55297-87-5

$$$$

     RDKit          2D

 14 15  0  0  0  0  0  0  0  0999 V2000
   -3.8471   -0.4638    0.0000 C   0  0  0  0  0  0  0  0  0  0  0  0
   -2.3475   -0.4277    0.0000 C   0  0  0  0  0  0  0  0  0  0  0  0
   -1.5665   -1.7083    0.0000 O   0  0  0  0  0  0  0  0  0  0  0  0
   -0.0670   -1.6723    0.0000 C   0  0  0  0  0  0  0  0  0  0  0  0
    0.7140   -2.9529    0.0000 O   0  0  0  0  0  0  0  0  0  0  0  0
    0.6516   -0.3556    0.0000 C   0  0  0  0  0  0  0  0  0  0  0  0
    2.1512   -0.3195    0.0000 C   0  0  0  0  0  0  0  0  0  0  0  0
    2.9322   -1.6002    0.0000 O   0  0  0  0  0  0  0  0  0  0  0  0
    2.8697    0.9971    0.0000 C   0  0  0  0  0  0  0  0  0  0  0  0
    2.0887    2.2778    0.0000 C   0  0  0  0  0  0  0  0  0  0  0  0
    0.5891    2.2417    0.0000 C   0  0  0  0  0  0  0  0  0  0  0  0
   -0.1294    0.9250    0.0000 C   0  0  0  0  0  0  0  0  0  0  0  0
   -1.6290    0.8890    0.0000 C   0  0  0  0  0  0  0  0  0  0  0  0
   -2.4100    2.1696    0.0000 O   0  0  0  0  0  0  0  0  0  0  0  0
  2  1  1  1
  2  3  1  0
  3  4  1  0
  4  5  2  0
  4  6  1  0
  6  7  2  0
  7  8  1  0
  7  9  1  0
  9 10  2  0
 10 11  1  0
 11 12  2  0
 12 13  1  0
 13 14  1  6
 13  2  1  0
 12  6  1  0
M  END
>  <identifier>  (282) 
CNP0244185.1

>  <canonical_smiles>  (282) 
C[C@@H]1OC(=O)C2=C(O)C=CC=C2[C@H]1O

>  <standard_inchi>  (282) 
InChI=1S/C10H10O4/c1-5-9(12)6-3-2-4-7(11)8(6)10(13)14-5/h2-5,9,11-12H,1H3/t5-,9-/m0/s1

>  <standard_inchi_key>  (282) 
STSOHAOGZMLWFR-CDUCUWFYSA-N

>  <name>  (282) 
2AN4H16ZVL

>  <iupac_name>  (282) 
(3~{S},4~{R})-4,8-dihydroxy-3-methyl-isochroman-1-one

>  <annotation_level>  (282) 
5

>  <total_atom_count>  (282) 
24

>  <heavy_atom_count>  (282) 
14

>  <molecular_weight>  (282) 
194.19

>  <exact_molecular_weight>  (282) 
194.05791

>  <molecular_formula>  (282) 
C10H10O4

>  <alogp>  (282) 
0.98

>  <topological_polar_surface_area>  (282) 
66.76

>  <rotatable_bond_count>  (282) 
0

>  <hydrogen_bond_acceptors>  (282) 
4

>  <hydrogen_bond_donors>  (282) 
2

>  <hydrogen_bond_acceptors_lipinski>  (282) 
4

>  <hydrogen_bond_donors_lipinski>  (282) 
2

>  <lipinski_rule_of_five_violations>  (282) 
0

>  <aromatic_rings_count>  (282) 
1

>  <qed_drug_likeliness>  (282) 
0.60

>  <formal_charge>  (282) 
0

>  <fractioncsp3>  (282) 
0.30

>  <number_of_minimal_rings>  (282) 
2

>  <van_der_walls_volume>  (282) 
167.44

>  <contains_sugar>  (282) 
False

>  <contains_ring_sugars>  (282) 
False

>  <contains_linear_sugars>  (282) 
False

>  <murcko_framework>  (282) 
O1Cc2ccccc2CC1

>  <np_likeness>  (282) 
2.08

>  <chemical_class>  (282) 
Benzopyrans

>  <chemical_sub_class>  (282) 
2-benzopyrans

>  <chemical_super_class>  (282) 
Organoheterocyclic compounds

>  <direct_parent_classification>  (282) 
2-benzopyrans

>  <np_classifier_pathway>  (282) 
Shikimates and Phenylpropanoids

>  <np_classifier_superclass>  (282) 
Coumarins

>  <np_classifier_class>  (282) 
Isocoumarins

>  <np_classifier_is_glycoside>  (282) 
False

>  <organisms>  (282) 
Allium neapolitanum|Anthopleura xanthogrammica|Burkholderia pyrrocinia|Byssothecium obiones|Cycas armstrongii|Cycas revoluta|Dasystenella acanthina|Ephedra aphylla|Eutreptia viridis|Gloiopeltis furcata|Licaria armeniaca|Mammillaria magnimamma|Monanchora pulchra|Munronia delavayi|Neonectria candida|Plectocephalus chilensis|Quercus suber|Suillus bovinus|Trichilia hirta|Typha domingensis|Xylaria feejeensis

>  <collections>  (282) 
BIOFACQUIM|CMAUP (cCollective molecular activities of useful plants)|EMNPD|Latin America dataset|NPASS|NPAtlas|Super Natural II

>  <dois>  (282) 
10.1021/np500897y

>  <synonyms>  (282) 
4-Hydroxymellein| (3S-trans)-|UNII-2AN4H16ZVL|3S|4R-(+)-4-hydroxymellein|1H-2-Benzopyran-1-one| 3|4-dihydro-4|8-dihydroxy-3-methyl-| (3S|4R)-|1661021-12-0|(3S-trans)-4-hydroxymellein|CHEMBL3577240|CHEBI:204421|Q27254488|(3S|4R)-4|8-dihydroxy-3-methyl-3|4-dihydroisochromen-1-one

>  <cas>  (282) 
nan

$$$$

     RDKit          2D

 22 24  0  0  0  0  0  0  0  0999 V2000
   -4.3236    2.0520    0.0000 C   0  0  0  0  0  0  0  0  0  0  0  0
   -4.3141    0.5520    0.0000 O   0  0  0  0  0  0  0  0  0  0  0  0
   -3.0103   -0.1897    0.0000 C   0  0  0  0  0  0  0  0  0  0  0  0
   -3.0007   -1.6896    0.0000 C   0  0  0  0  0  0  0  0  0  0  0  0
   -4.2949   -2.4479    0.0000 O   0  0  0  0  0  0  0  0  0  0  0  0
   -1.6969   -2.4313    0.0000 C   0  0  0  0  0  0  0  0  0  0  0  0
   -0.4027   -1.6731    0.0000 C   0  0  0  0  0  0  0  0  0  0  0  0
    0.9011   -2.4148    0.0000 C   0  0  0  0  0  0  0  0  0  0  0  0
    2.1954   -1.6565    0.0000 C   0  0  0  0  0  0  0  0  0  0  0  0
    3.4992   -2.3982    0.0000 O   0  0  0  0  0  0  0  0  0  0  0  0
    3.5087   -3.8982    0.0000 C   0  0  0  0  0  0  0  0  0  0  0  0
    2.1858   -0.1565    0.0000 C   0  0  0  0  0  0  0  0  0  0  0  0
    3.4800    0.6018    0.0000 C   0  0  0  0  0  0  0  0  0  0  0  0
    3.4704    2.1017    0.0000 C   0  0  0  0  0  0  0  0  0  0  0  0
    4.7647    2.8600    0.0000 O   0  0  0  0  0  0  0  0  0  0  0  0
    2.1667    2.8434    0.0000 C   0  0  0  0  0  0  0  0  0  0  0  0
    0.8724    2.0852    0.0000 C   0  0  0  0  0  0  0  0  0  0  0  0
    0.8820    0.5852    0.0000 C   0  0  0  0  0  0  0  0  0  0  0  0
   -0.4122   -0.1731    0.0000 C   0  0  0  0  0  0  0  0  0  0  0  0
   -1.7160    0.5686    0.0000 C   0  0  0  0  0  0  0  0  0  0  0  0
   -1.7256    2.0686    0.0000 O   0  0  0  0  0  0  0  0  0  0  0  0
   -3.0294    2.8103    0.0000 C   0  0  0  0  0  0  0  0  0  0  0  0
  1  2  1  0
  2  3  1  0
  3  4  2  0
  4  5  1  0
  4  6  1  0
  6  7  2  0
  7  8  1  0
  8  9  2  0
  9 10  1  0
 10 11  1  0
  9 12  1  0
 12 13  2  0
 13 14  1  0
 14 15  1  0
 14 16  2  0
 16 17  1  0
 17 18  2  0
 18 19  1  0
 19 20  2  0
 20 21  1  0
 21 22  1  0
 20  3  1  0
 19  7  1  0
 18 12  1  0
M  END
>  <identifier>  (283) 
CNP0263291.0

>  <canonical_smiles>  (283) 
COC1=C(O)C=C2C=C(OC)C3=CC(O)=CC=C3C2=C1OC

>  <standard_inchi>  (283) 
InChI=1S/C17H16O5/c1-20-14-7-9-6-13(19)16(21-2)17(22-3)15(9)11-5-4-10(18)8-12(11)14/h4-8,18-19H,1-3H3

>  <standard_inchi_key>  (283) 
GIVSZLKTIBWYRM-UHFFFAOYSA-N

>  <name>  (283) 
Gymnopusin

>  <iupac_name>  (283) 
3,4,9-trimethoxyphenanthrene-2,7-diol

>  <annotation_level>  (283) 
5

>  <total_atom_count>  (283) 
38

>  <heavy_atom_count>  (283) 
22

>  <molecular_weight>  (283) 
300.31

>  <exact_molecular_weight>  (283) 
300.09977

>  <molecular_formula>  (283) 
C17H16O5

>  <alogp>  (283) 
3.43

>  <topological_polar_surface_area>  (283) 
68.15

>  <rotatable_bond_count>  (283) 
3

>  <hydrogen_bond_acceptors>  (283) 
5

>  <hydrogen_bond_donors>  (283) 
2

>  <hydrogen_bond_acceptors_lipinski>  (283) 
5

>  <hydrogen_bond_donors_lipinski>  (283) 
2

>  <lipinski_rule_of_five_violations>  (283) 
0

>  <aromatic_rings_count>  (283) 
3

>  <qed_drug_likeliness>  (283) 
0.73

>  <formal_charge>  (283) 
0

>  <fractioncsp3>  (283) 
0.18

>  <number_of_minimal_rings>  (283) 
3

>  <van_der_walls_volume>  (283) 
261.95

>  <contains_sugar>  (283) 
False

>  <contains_ring_sugars>  (283) 
False

>  <contains_linear_sugars>  (283) 
False

>  <murcko_framework>  (283) 
c1ccc2c(c1)ccc3ccccc32

>  <np_likeness>  (283) 
1.49

>  <chemical_class>  (283) 
Phenanthrenes and derivatives

>  <chemical_sub_class>  (283) 
Phenanthrols

>  <chemical_super_class>  (283) 
Benzenoids

>  <direct_parent_classification>  (283) 
Phenanthrols

>  <np_classifier_pathway>  (283) 
Shikimates and Phenylpropanoids

>  <np_classifier_superclass>  (283) 
Phenanthrenoids

>  <np_classifier_class>  (283) 
Phenanthrenes

>  <np_classifier_is_glycoside>  (283) 
False

>  <organisms>  (283) 
Abelmoschus moschatus|Aplophyllum suaveolens|Bulbophyllum gymnopus|Bulbophyllum reptans|Dahlia merckii|Entandrophragma candollei|Maxillaria densa|Pecten yessoensis|Salvia columbariae|Sophora tomentosa|Stachys glabra

>  <collections>  (283) 
BIOFACQUIM|CMAUP (cCollective molecular activities of useful plants)|KNApSaCK|Latin America dataset|NPASS|NPEdia|Super Natural II|UNPD (Universal Natural Products Database)

>  <dois>  (283) 
10.1016/S0031-9422(02)00220-0|10.1021/np300508v

>  <synonyms>  (283) 
U8AQ3SG7TD|UNII-U8AQ3SG7TD|3|4|9-Trimethoxy-2|7-phenanthrenediol|2|7-Phenanthrenediol| 3|4|9-trimethoxy-|113476-61-2|CHEMBL2208383|DTXSID501031827|3|4|9-TRIMETHOXYPHENANTHRENE-2|7-DIOL|Gymnopusin|7|9-Dihydroxy-2|3|4-trimethoxyphenanthrene

>  <cas>  (283) 
113476-61-2

$$$$

     RDKit          2D

 17 17  0  0  0  0  0  0  0  0999 V2000
   -5.1274   -1.1303    0.0000 C   0  0  0  0  0  0  0  0  0  0  0  0
   -3.6581   -0.8288    0.0000 C   0  0  0  0  0  0  0  0  0  0  0  0
   -3.1845    0.5945    0.0000 C   0  0  0  0  0  0  0  0  0  0  0  0
   -4.1804    1.7163    0.0000 C   0  0  0  0  0  0  0  0  0  0  0  0
   -1.7152    0.8961    0.0000 C   0  0  0  0  0  0  0  0  0  0  0  0
   -1.2416    2.3194    0.0000 O   0  0  0  0  0  0  0  0  0  0  0  0
   -0.7193   -0.2256    0.0000 O   0  0  0  0  0  0  0  0  0  0  0  0
    0.7500    0.0759    0.0000 C   0  0  0  0  0  0  0  0  0  0  0  0
    1.2236    1.4992    0.0000 C   0  0  0  0  0  0  0  0  0  0  0  0
    2.6930    1.8008    0.0000 C   0  0  0  0  0  0  0  0  0  0  0  0
    3.1665    3.2241    0.0000 C   0  0  0  0  0  0  0  0  0  0  0  0
    3.6888    0.6791    0.0000 C   0  0  0  0  0  0  0  0  0  0  0  0
    3.2153   -0.7442    0.0000 C   0  0  0  0  0  0  0  0  0  0  0  0
    1.7459   -1.0458    0.0000 C   0  0  0  0  0  0  0  0  0  0  0  0
    1.2724   -2.4691    0.0000 C   0  0  0  0  0  0  0  0  0  0  0  0
   -0.1970   -2.7707    0.0000 C   0  0  0  0  0  0  0  0  0  0  0  0
    2.2682   -3.5908    0.0000 C   0  0  0  0  0  0  0  0  0  0  0  0
  1  2  1  0
  2  3  2  3
  3  4  1  0
  3  5  1  0
  5  6  2  0
  5  7  1  0
  7  8  1  0
  8  9  2  0
  9 10  1  0
 10 11  1  0
 10 12  2  0
 12 13  1  0
 13 14  2  0
 14 15  1  0
 15 16  1  0
 15 17  1  0
 14  8  1  0
M  END
>  <identifier>  (284) 
CNP0124940.0

>  <canonical_smiles>  (284) 
CC=C(C)C(=O)OC1=CC(C)=CC=C1C(C)C

>  <standard_inchi>  (284) 
InChI=1S/C15H20O2/c1-6-12(5)15(16)17-14-9-11(4)7-8-13(14)10(2)3/h6-10H,1-5H3

>  <standard_inchi_key>  (284) 
UUEIVUJSJLKAAM-UHFFFAOYSA-N

>  <name>  (284) 
nan

>  <iupac_name>  (284) 
(2-isopropyl-5-methyl-phenyl) 2-methylbut-2-enoate

>  <annotation_level>  (284) 
5

>  <total_atom_count>  (284) 
37

>  <heavy_atom_count>  (284) 
17

>  <molecular_weight>  (284) 
232.32

>  <exact_molecular_weight>  (284) 
232.14633

>  <molecular_formula>  (284) 
C15H20O2

>  <alogp>  (284) 
3.99

>  <topological_polar_surface_area>  (284) 
26.30

>  <rotatable_bond_count>  (284) 
3

>  <hydrogen_bond_acceptors>  (284) 
2

>  <hydrogen_bond_donors>  (284) 
0

>  <hydrogen_bond_acceptors_lipinski>  (284) 
2

>  <hydrogen_bond_donors_lipinski>  (284) 
0

>  <lipinski_rule_of_five_violations>  (284) 
0

>  <aromatic_rings_count>  (284) 
1

>  <qed_drug_likeliness>  (284) 
0.45

>  <formal_charge>  (284) 
0

>  <fractioncsp3>  (284) 
0.40

>  <number_of_minimal_rings>  (284) 
1

>  <van_der_walls_volume>  (284) 
237.60

>  <contains_sugar>  (284) 
False

>  <contains_ring_sugars>  (284) 
False

>  <contains_linear_sugars>  (284) 
False

>  <murcko_framework>  (284) 
c1ccccc1

>  <np_likeness>  (284) 
0.69

>  <chemical_class>  (284) 
Prenol lipids

>  <chemical_sub_class>  (284) 
Monoterpenoids

>  <chemical_super_class>  (284) 
Lipids and lipid-like molecules

>  <direct_parent_classification>  (284) 
Aromatic monoterpenoids

>  <np_classifier_pathway>  (284) 
Terpenoids

>  <np_classifier_superclass>  (284) 
Monoterpenoids

>  <np_classifier_class>  (284) 
Menthane monoterpenoids

>  <np_classifier_is_glycoside>  (284) 
False

>  <organisms>  (284) 
Achillea pannonica|Alloascoidea hylecoeti|Annulusmagnus triseptatus|Anthocercis genistoides|Aphanamixis polystachya|Armillaria tabescens|Asclepias speciosa|Callicarpa bodinieri|Citrus aurantiifolia|Corydalis flabellata|Crocus asturicus|Cyerce cristallina|Dichapetalum madagascariense|Diospyros crassiflora|Doriopsilla albopunctata|Echites hirsuta|Epimedium versicolor|Erica carnea|Eupatorium fortunei|Eupatorium pauciflorum|Helenium alternifolium|Hofmeisteria schaffneri|Hofmeisteria schanffneri|Huperzia lucidula|Justicia ghiesbreghtiana|Lysimachia clethroides|Manilkara hexandra|Medicago truncatula|Mimosa tenuiflora|Moringa stenopetala|Mourera fluviatilis|Paeonia delavayi|Parmelia pseudoreticulata|Phaulopsis imbricata|Physcia aegialita|Piper sintenense|Polyopes affinis|Pteris palmiformis|Pyura sacciformis|Ricciocarpos natans|Sarcophyton glaucum|Scutellaria violacea|Senna sophera|Spirastrella inconstans|Stevia satureiaefolia|Stillingia sanguinolenta|Syringa komarowi|Teucrium trifidum|Thalictrum fortunei|Trapa bispinosa|Uncaria glabrata|Viburnum fur

>  <collections>  (284) 
BIOFACQUIM|CMAUP (cCollective molecular activities of useful plants)|KNApSaCK|Latin America dataset|NPASS|Super Natural II|UNPD (Universal Natural Products Database)

>  <dois>  (284) 
10.1016/j.phytochem.2008.01.011

>  <synonyms>  (284) 
Hofmeisterin III

>  <cas>  (284) 
nan

$$$$

     RDKit          2D

 22 23  0  0  0  0  0  0  0  0999 V2000
   -7.5912   -0.5576    0.0000 C   0  0  0  0  0  0  0  0  0  0  0  0
   -6.1359   -0.1940    0.0000 C   0  0  0  0  0  0  0  0  0  0  0  0
   -5.7232    1.2481    0.0000 C   0  0  0  0  0  0  0  0  0  0  0  0
   -4.2679    1.6117    0.0000 C   0  0  0  0  0  0  0  0  0  0  0  0
   -3.2254    0.5331    0.0000 C   0  0  0  0  0  0  0  0  0  0  0  0
   -1.7701    0.8967    0.0000 C   0  0  0  0  0  0  0  0  0  0  0  0
   -1.3574    2.3388    0.0000 O   0  0  0  0  0  0  0  0  0  0  0  0
   -0.7276   -0.1818    0.0000 C   0  0  0  0  0  0  0  0  0  0  0  0
    0.7276    0.1818    0.0000 C   0  0  0  0  0  0  0  0  0  0  0  0
    1.7701   -0.8967    0.0000 C   0  0  0  0  0  0  0  0  0  0  0  0
    1.3574   -2.3388    0.0000 O   0  0  0  0  0  0  0  0  0  0  0  0
    3.2254   -0.5331    0.0000 C   0  0  0  0  0  0  0  0  0  0  0  0
    4.2679   -1.6117    0.0000 C   0  0  0  0  0  0  0  0  0  0  0  0
    5.7232   -1.2481    0.0000 C   0  0  0  0  0  0  0  0  0  0  0  0
    6.1359    0.1940    0.0000 C   0  0  0  0  0  0  0  0  0  0  0  0
    7.5912    0.5576    0.0000 C   0  0  0  0  0  0  0  0  0  0  0  0
    5.0934    1.2725    0.0000 C   0  0  0  0  0  0  0  0  0  0  0  0
    3.6382    0.9089    0.0000 C   0  0  0  0  0  0  0  0  0  0  0  0
    2.5957    1.9875    0.0000 O   0  0  0  0  0  0  0  0  0  0  0  0
   -3.6382   -0.9089    0.0000 C   0  0  0  0  0  0  0  0  0  0  0  0
   -2.5957   -1.9875    0.0000 O   0  0  0  0  0  0  0  0  0  0  0  0
   -5.0934   -1.2725    0.0000 C   0  0  0  0  0  0  0  0  0  0  0  0
  1  2  1  0
  2  3  2  0
  3  4  1  0
  4  5  2  0
  5  6  1  0
  6  7  2  0
  6  8  1  0
  8  9  1  0
  9 10  1  0
 10 11  2  0
 10 12  1  0
 12 13  2  0
 13 14  1  0
 14 15  2  0
 15 16  1  0
 15 17  1  0
 17 18  2  0
 18 19  1  0
  5 20  1  0
 20 21  1  0
 20 22  2  0
 22  2  1  0
 18 12  1  0
M  END
>  <identifier>  (285) 
CNP0250368.0

>  <canonical_smiles>  (285) 
CC1=CC=C(C(=O)CCC(=O)C2=CC=C(C)C=C2O)C(O)=C1

>  <standard_inchi>  (285) 
InChI=1S/C18H18O4/c1-11-3-5-13(17(21)9-11)15(19)7-8-16(20)14-6-4-12(2)10-18(14)22/h3-6,9-10,21-22H,7-8H2,1-2H3

>  <standard_inchi_key>  (285) 
VCMZMLWIPPPAOG-UHFFFAOYSA-N

>  <name>  (285) 
Hofmeisterin II

>  <iupac_name>  (285) 
1,4-bis(2-hydroxy-4-methyl-phenyl)butane-1,4-dione

>  <annotation_level>  (285) 
5

>  <total_atom_count>  (285) 
40

>  <heavy_atom_count>  (285) 
22

>  <molecular_weight>  (285) 
298.34

>  <exact_molecular_weight>  (285) 
298.12051

>  <molecular_formula>  (285) 
C18H18O4

>  <alogp>  (285) 
3.56

>  <topological_polar_surface_area>  (285) 
74.60

>  <rotatable_bond_count>  (285) 
5

>  <hydrogen_bond_acceptors>  (285) 
4

>  <hydrogen_bond_donors>  (285) 
2

>  <hydrogen_bond_acceptors_lipinski>  (285) 
4

>  <hydrogen_bond_donors_lipinski>  (285) 
2

>  <lipinski_rule_of_five_violations>  (285) 
0

>  <aromatic_rings_count>  (285) 
2

>  <qed_drug_likeliness>  (285) 
0.83

>  <formal_charge>  (285) 
0

>  <fractioncsp3>  (285) 
0.22

>  <number_of_minimal_rings>  (285) 
2

>  <van_der_walls_volume>  (285) 
276.28

>  <contains_sugar>  (285) 
False

>  <contains_ring_sugars>  (285) 
False

>  <contains_linear_sugars>  (285) 
False

>  <murcko_framework>  (285) 
c1ccc(cc1)CCCCc2ccccc2

>  <np_likeness>  (285) 
-0.07

>  <chemical_class>  (285) 
Organooxygen compounds

>  <chemical_sub_class>  (285) 
Carbonyl compounds

>  <chemical_super_class>  (285) 
Organic oxygen compounds

>  <direct_parent_classification>  (285) 
Alkyl-phenylketones

>  <np_classifier_pathway>  (285) 
Shikimates and Phenylpropanoids

>  <np_classifier_superclass>  (285) 
Flavonoids

>  <np_classifier_class>  (285) 
Chalcones

>  <np_classifier_is_glycoside>  (285) 
False

>  <organisms>  (285) 
Eupatorium cannabinum|Hofmeisteria schaffneri|Hofmeisteria schanffneri

>  <collections>  (285) 
BIOFACQUIM|CMAUP (cCollective molecular activities of useful plants)|ChEBI NPs|KNApSaCK|Latin America dataset|NPASS|UNPD (Universal Natural Products Database)

>  <dois>  (285) 
10.1016/j.phytochem.2008.01.011|10.1021/np100923z

>  <synonyms>  (285) 
1|4-bis(2-hydroxy-4-methylphenyl)butane-1|4-dione|CHEBI:67436|Q27135901|Hofmeisterin II

>  <cas>  (285) 
nan

$$$$

     RDKit          2D

 25 29  0  0  0  0  0  0  0  0999 V2000
   -7.3450    0.3109    0.0000 C   0  0  0  0  0  0  0  0  0  0  0  0
   -5.8475    0.3975    0.0000 C   0  0  0  0  0  0  0  0  0  0  0  0
   -5.1737    1.7377    0.0000 C   0  0  0  0  0  0  0  0  0  0  0  0
   -3.6762    1.8243    0.0000 C   0  0  0  0  0  0  0  0  0  0  0  0
   -2.8525    0.5707    0.0000 C   0  0  0  0  0  0  0  0  0  0  0  0
   -3.5262   -0.7694    0.0000 C   0  0  0  0  0  0  0  0  0  0  0  0
   -5.0237   -0.8561    0.0000 C   0  0  0  0  0  0  0  0  0  0  0  0
   -2.4598   -1.8243    0.0000 O   0  0  0  0  0  0  0  0  0  0  0  0
   -1.1270   -1.1361    0.0000 C   0  0  0  0  0  0  0  0  0  0  0  0
    0.2762   -1.6661    0.0000 O   0  0  0  0  0  0  0  0  0  0  0  0
    1.4368   -0.7158    0.0000 C   0  0  0  0  0  0  0  0  0  0  0  0
    1.1942    0.7644    0.0000 C   0  0  0  0  0  0  0  0  0  0  0  0
   -0.2091    1.2944    0.0000 C   0  0  0  0  0  0  0  0  0  0  0  0
   -1.3697    0.3441    0.0000 C   0  0  0  0  0  0  0  0  0  0  0  0
   -1.7658    1.7909    0.0000 O   0  0  0  0  0  0  0  0  0  0  0  0
    2.6904    0.1080    0.0000 C   0  0  0  0  0  0  0  0  0  0  0  0
    2.9170    1.5907    0.0000 C   0  0  0  0  0  0  0  0  0  0  0  0
    4.3144    2.1359    0.0000 C   0  0  0  0  0  0  0  0  0  0  0  0
    5.4853    1.1982    0.0000 C   0  0  0  0  0  0  0  0  0  0  0  0
    6.8827    1.7434    0.0000 C   0  0  0  0  0  0  0  0  0  0  0  0
    5.2586   -0.2846    0.0000 C   0  0  0  0  0  0  0  0  0  0  0  0
    3.8612   -0.8297    0.0000 C   0  0  0  0  0  0  0  0  0  0  0  0
    3.3312   -2.2330    0.0000 O   0  0  0  0  0  0  0  0  0  0  0  0
    1.8329   -2.1626    0.0000 C   0  0  0  0  0  0  0  0  0  0  0  0
    0.8952   -3.3334    0.0000 O   0  0  0  0  0  0  0  0  0  0  0  0
  1  2  1  0
  2  3  2  0
  3  4  1  0
  4  5  2  0
  5  6  1  0
  6  7  2  0
  6  8  1  0
  9  8  1  6
  9 10  1  0
 10 11  1  0
 11 12  1  1
 12 13  1  0
 13 14  1  0
 14 15  1  1
 11 16  1  0
 16 17  2  0
 17 18  1  0
 18 19  2  0
 19 20  1  0
 19 21  1  0
 21 22  2  0
 22 23  1  0
 23 24  1  0
 24 25  1  6
  7  2  1  0
 14  9  1  0
 22 16  1  0
 14  5  1  0
 24 11  1  0
M  END
>  <identifier>  (286) 
CNP0371026.2

>  <canonical_smiles>  (286) 
CC1=CC=C2C(=C1)O[C@H]1O[C@]3(CC[C@@]21O)C1=CC=C(C)C=C1O[C@@H]3O

>  <standard_inchi>  (286) 
InChI=1S/C20H20O5/c1-11-3-5-13-15(9-11)24-18-19(13,22)7-8-20(25-18)14-6-4-12(2)10-16(14)23-17(20)21/h3-6,9-10,17-18,21-22H,7-8H2,1-2H3/t17-,18-,19+,20+/m0/s1

>  <standard_inchi_key>  (286) 
YMKQULZUUJUBPP-VNTMZGSJSA-N

>  <name>  (286) 
nan

>  <iupac_name>  (286) 
(2~{S},3~{R},4'~{a}~{R},9'~{a}~{S})-6,7'-dimethylspiro[2~{H}-benzofuran-3,2'-4,9~{a}-dihydro-3~{H}-pyrano[2,3-b]benzofuran]-2,4'~{a}-diol

>  <annotation_level>  (286) 
5

>  <total_atom_count>  (286) 
45

>  <heavy_atom_count>  (286) 
25

>  <molecular_weight>  (286) 
340.38

>  <exact_molecular_weight>  (286) 
340.13107

>  <molecular_formula>  (286) 
C20H20O5

>  <alogp>  (286) 
2.63

>  <topological_polar_surface_area>  (286) 
68.15

>  <rotatable_bond_count>  (286) 
0

>  <hydrogen_bond_acceptors>  (286) 
5

>  <hydrogen_bond_donors>  (286) 
2

>  <hydrogen_bond_acceptors_lipinski>  (286) 
5

>  <hydrogen_bond_donors_lipinski>  (286) 
2

>  <lipinski_rule_of_five_violations>  (286) 
0

>  <aromatic_rings_count>  (286) 
2

>  <qed_drug_likeliness>  (286) 
0.77

>  <formal_charge>  (286) 
0

>  <fractioncsp3>  (286) 
0.40

>  <number_of_minimal_rings>  (286) 
5

>  <van_der_walls_volume>  (286) 
297.55

>  <contains_sugar>  (286) 
False

>  <contains_ring_sugars>  (286) 
False

>  <contains_linear_sugars>  (286) 
False

>  <murcko_framework>  (286) 
O1c2ccccc2C3(OC4Oc5ccccc5C4CC3)C1

>  <np_likeness>  (286) 
1.79

>  <chemical_class>  (286) 
Furopyrans

>  <chemical_sub_class>  (286) 
Furopyrans

>  <chemical_super_class>  (286) 
Organoheterocyclic compounds

>  <direct_parent_classification>  (286) 
Furopyrans

>  <np_classifier_pathway>  (286) 
Terpenoids

>  <np_classifier_superclass>  (286) 
nan

>  <np_classifier_class>  (286) 
nan

>  <np_classifier_is_glycoside>  (286) 
False

>  <organisms>  (286) 
Hofmeisteria schaffneri

>  <collections>  (286) 
BIOFACQUIM|Latin America dataset

>  <dois>  (286) 
10.1016/j.phytochem.2008.01.011

>  <synonyms>  (286) 
Dimer hofmeisterin

>  <cas>  (286) 
nan

$$$$

     RDKit          2D

 26 26  0  0  0  0  0  0  0  0999 V2000
    4.0002    5.3248    0.0000 C   0  0  0  0  0  0  0  0  0  0  0  0
    3.1680    4.0769    0.0000 C   0  0  0  0  0  0  0  0  0  0  0  0
    3.8327    2.7322    0.0000 C   0  0  0  0  0  0  0  0  0  0  0  0
    5.3296    2.6355    0.0000 C   0  0  0  0  0  0  0  0  0  0  0  0
    3.0005    1.4842    0.0000 C   0  0  0  0  0  0  0  0  0  0  0  0
    3.6652    0.1395    0.0000 O   0  0  0  0  0  0  0  0  0  0  0  0
    1.5036    1.5809    0.0000 O   0  0  0  0  0  0  0  0  0  0  0  0
    0.6714    0.3330    0.0000 C   0  0  0  0  0  0  0  0  0  0  0  0
   -0.8255    0.4297    0.0000 C   0  0  0  0  0  0  0  0  0  0  0  0
   -0.7287    1.9266    0.0000 O   0  0  0  0  0  0  0  0  0  0  0  0
   -0.9222   -1.0672    0.0000 C   0  0  0  0  0  0  0  0  0  0  0  0
    0.3258   -1.8994    0.0000 O   0  0  0  0  0  0  0  0  0  0  0  0
    0.2291   -3.3963    0.0000 C   0  0  0  0  0  0  0  0  0  0  0  0
   -1.1156   -4.0610    0.0000 O   0  0  0  0  0  0  0  0  0  0  0  0
    1.4770   -4.2285    0.0000 C   0  0  0  0  0  0  0  0  0  0  0  0
    1.3803   -5.7254    0.0000 C   0  0  0  0  0  0  0  0  0  0  0  0
    2.8217   -3.5638    0.0000 C   0  0  0  0  0  0  0  0  0  0  0  0
    4.0697   -4.3960    0.0000 C   0  0  0  0  0  0  0  0  0  0  0  0
   -2.3223    0.5264    0.0000 C   0  0  0  0  0  0  0  0  0  0  0  0
   -3.1545   -0.7216    0.0000 C   0  0  0  0  0  0  0  0  0  0  0  0
   -4.6514   -0.6249    0.0000 C   0  0  0  0  0  0  0  0  0  0  0  0
   -5.3161    0.7198    0.0000 C   0  0  0  0  0  0  0  0  0  0  0  0
   -6.8130    0.8166    0.0000 C   0  0  0  0  0  0  0  0  0  0  0  0
   -4.4839    1.9678    0.0000 C   0  0  0  0  0  0  0  0  0  0  0  0
   -2.9870    1.8711    0.0000 C   0  0  0  0  0  0  0  0  0  0  0  0
   -2.1548    3.1191    0.0000 O   0  0  0  0  0  0  0  0  0  0  0  0
  1  2  1  0
  2  3  2  3
  3  4  1  0
  3  5  1  0
  5  6  2  0
  5  7  1  0
  7  8  1  0
  8  9  1  0
  9 10  1  0
  9 11  1  0
 11 12  1  0
 12 13  1  0
 13 14  2  0
 13 15  1  0
 15 16  1  0
 15 17  2  3
 17 18  1  0
  9 19  1  0
 19 20  2  0
 20 21  1  0
 21 22  2  0
 22 23  1  0
 22 24  1  0
 24 25  2  0
 25 26  1  0
 25 19  1  0
M  END
>  <identifier>  (287) 
CNP0290461.0

>  <canonical_smiles>  (287) 
CC=C(C)C(=O)OCC(O)(COC(=O)C(C)=CC)C1=CC=C(C)C=C1O

>  <standard_inchi>  (287) 
InChI=1S/C20H26O6/c1-6-14(4)18(22)25-11-20(24,12-26-19(23)15(5)7-2)16-9-8-13(3)10-17(16)21/h6-10,21,24H,11-12H2,1-5H3

>  <standard_inchi_key>  (287) 
YOHOPTQLMXBXDB-UHFFFAOYSA-N

>  <name>  (287) 
nan

>  <iupac_name>  (287) 
[2-hydroxy-2-(2-hydroxy-4-methyl-phenyl)-3-(2-methylbut-2-enoyloxy)propyl] 2-methylbut-2-enoate

>  <annotation_level>  (287) 
5

>  <total_atom_count>  (287) 
52

>  <heavy_atom_count>  (287) 
26

>  <molecular_weight>  (287) 
362.42

>  <exact_molecular_weight>  (287) 
362.17294

>  <molecular_formula>  (287) 
C20H26O6

>  <alogp>  (287) 
2.91

>  <topological_polar_surface_area>  (287) 
93.06

>  <rotatable_bond_count>  (287) 
7

>  <hydrogen_bond_acceptors>  (287) 
6

>  <hydrogen_bond_donors>  (287) 
2

>  <hydrogen_bond_acceptors_lipinski>  (287) 
6

>  <hydrogen_bond_donors_lipinski>  (287) 
2

>  <lipinski_rule_of_five_violations>  (287) 
0

>  <aromatic_rings_count>  (287) 
1

>  <qed_drug_likeliness>  (287) 
0.57

>  <formal_charge>  (287) 
0

>  <fractioncsp3>  (287) 
0.40

>  <number_of_minimal_rings>  (287) 
1

>  <van_der_walls_volume>  (287) 
343.11

>  <contains_sugar>  (287) 
False

>  <contains_ring_sugars>  (287) 
False

>  <contains_linear_sugars>  (287) 
False

>  <murcko_framework>  (287) 
c1ccccc1

>  <np_likeness>  (287) 
1.13

>  <chemical_class>  (287) 
Phenols

>  <chemical_sub_class>  (287) 
Cresols

>  <chemical_super_class>  (287) 
Benzenoids

>  <direct_parent_classification>  (287) 
Meta cresols

>  <np_classifier_pathway>  (287) 
Terpenoids

>  <np_classifier_superclass>  (287) 
Sesquiterpenoids

>  <np_classifier_class>  (287) 
Bisabolane sesquiterpenoids

>  <np_classifier_is_glycoside>  (287) 
False

>  <organisms>  (287) 
Hofmeisteria schaffneri|Hofmeisteria schanffneri

>  <collections>  (287) 
BIOFACQUIM|KNApSaCK|Latin America dataset|UNPD (Universal Natural Products Database)

>  <dois>  (287) 
10.1016/j.phytochem.2008.01.011

>  <synonyms>  (287) 
Hofmeisterin IV|2-Hydroxy-2-(2-hydroxy-4-methylphenyl)propane-1|3-diyl (2Z|2'Z)- bis(2-methylbut-2-enoate)

>  <cas>  (287) 
nan

$$$$

     RDKit          2D

 19 20  0  0  0  0  0  0  0  0999 V2000
   -5.1193    0.5896    0.0000 C   0  0  0  0  0  0  0  0  0  0  0  0
   -4.7334   -0.8599    0.0000 C   0  0  0  0  0  0  0  0  0  0  0  0
   -3.2851   -1.2504    0.0000 C   0  0  0  0  0  0  0  0  0  0  0  0
   -2.8992   -2.6999    0.0000 C   0  0  0  0  0  0  0  0  0  0  0  0
   -2.2228   -0.1915    0.0000 C   0  0  0  0  0  0  0  0  0  0  0  0
   -2.6087    1.2580    0.0000 O   0  0  0  0  0  0  0  0  0  0  0  0
   -0.7745   -0.5820    0.0000 O   0  0  0  0  0  0  0  0  0  0  0  0
    0.2878    0.4770    0.0000 C   0  0  0  0  0  0  0  0  0  0  0  0
   -0.0981    1.9265    0.0000 C   0  0  0  0  0  0  0  0  0  0  0  0
    0.9642    2.9854    0.0000 C   0  0  0  0  0  0  0  0  0  0  0  0
    0.5783    4.4350    0.0000 C   0  0  0  0  0  0  0  0  0  0  0  0
    2.4125    2.5949    0.0000 C   0  0  0  0  0  0  0  0  0  0  0  0
    2.7984    1.1454    0.0000 C   0  0  0  0  0  0  0  0  0  0  0  0
    1.7361    0.0864    0.0000 C   0  0  0  0  0  0  0  0  0  0  0  0
    2.1220   -1.3631    0.0000 C   0  0  0  0  0  0  0  0  0  0  0  0
    3.6165   -1.2347    0.0000 C   0  0  0  0  0  0  0  0  0  0  0  0
    4.4749   -2.4648    0.0000 O   0  0  0  0  0  0  0  0  0  0  0  0
    1.9889   -2.8572    0.0000 C   0  0  0  0  0  0  0  0  0  0  0  0
    0.7615   -1.9948    0.0000 O   0  0  0  0  0  0  0  0  0  0  0  0
  1  2  1  0
  2  3  2  0
  3  4  1  0
  3  5  1  0
  5  6  2  0
  5  7  1  0
  7  8  1  0
  8  9  2  0
  9 10  1  0
 10 11  1  0
 10 12  2  0
 12 13  1  0
 13 14  2  0
 14 15  1  0
 15 16  1  1
 16 17  1  0
 15 18  1  0
 18 19  1  0
 14  8  1  0
 19 15  1  0
M  END
>  <identifier>  (288) 
CNP0251062.1

>  <canonical_smiles>  (288) 
C/C=C(/C)C(=O)OC1=CC(C)=CC=C1[C@]1(CO)CO1

>  <standard_inchi>  (288) 
InChI=1S/C15H18O4/c1-4-11(3)14(17)19-13-7-10(2)5-6-12(13)15(8-16)9-18-15/h4-7,16H,8-9H2,1-3H3/b11-4-/t15-/m0/s1

>  <standard_inchi_key>  (288) 
CQXZARCGOSILEP-WQTJRACASA-N

>  <name>  (288) 
nan

>  <iupac_name>  (288) 
[2-[(2~{S})-2-(hydroxymethyl)oxiran-2-yl]-5-methyl-phenyl] (~{Z})-2-methylbut-2-enoate

>  <annotation_level>  (288) 
5

>  <total_atom_count>  (288) 
37

>  <heavy_atom_count>  (288) 
19

>  <molecular_weight>  (288) 
262.3

>  <exact_molecular_weight>  (288) 
262.12051

>  <molecular_formula>  (288) 
C15H18O4

>  <alogp>  (288) 
2.08

>  <topological_polar_surface_area>  (288) 
59.06

>  <rotatable_bond_count>  (288) 
4

>  <hydrogen_bond_acceptors>  (288) 
4

>  <hydrogen_bond_donors>  (288) 
1

>  <hydrogen_bond_acceptors_lipinski>  (288) 
4

>  <hydrogen_bond_donors_lipinski>  (288) 
1

>  <lipinski_rule_of_five_violations>  (288) 
0

>  <aromatic_rings_count>  (288) 
1

>  <qed_drug_likeliness>  (288) 
0.39

>  <formal_charge>  (288) 
0

>  <fractioncsp3>  (288) 
0.40

>  <number_of_minimal_rings>  (288) 
2

>  <van_der_walls_volume>  (288) 
248.84

>  <contains_sugar>  (288) 
False

>  <contains_ring_sugars>  (288) 
False

>  <contains_linear_sugars>  (288) 
False

>  <murcko_framework>  (288) 
O1CC1c2ccccc2

>  <np_likeness>  (288) 
1.77

>  <chemical_class>  (288) 
Phenol esters

>  <chemical_sub_class>  (288) 
Phenol esters

>  <chemical_super_class>  (288) 
Benzenoids

>  <direct_parent_classification>  (288) 
Phenol esters

>  <np_classifier_pathway>  (288) 
Polyketides

>  <np_classifier_superclass>  (288) 
nan

>  <np_classifier_class>  (288) 
nan

>  <np_classifier_is_glycoside>  (288) 
False

>  <organisms>  (288) 
Hofmeisteria schaffneri

>  <collections>  (288) 
BIOFACQUIM|Super Natural II

>  <dois>  (288) 
10.1016/j.phytochem.2008.01.011

>  <synonyms>  (288) 
Thymol derivII

>  <cas>  (288) 
nan

$$$$

     RDKit          2D

 20 20  0  0  0  0  0  0  0  0999 V2000
   -5.0308    2.5580    0.0000 C   0  0  0  0  0  0  0  0  0  0  0  0
   -5.4159    1.1083    0.0000 C   0  0  0  0  0  0  0  0  0  0  0  0
   -4.3530    0.0499    0.0000 C   0  0  0  0  0  0  0  0  0  0  0  0
   -4.7381   -1.3998    0.0000 C   0  0  0  0  0  0  0  0  0  0  0  0
   -2.9050    0.4412    0.0000 C   0  0  0  0  0  0  0  0  0  0  0  0
   -2.5198    1.8910    0.0000 O   0  0  0  0  0  0  0  0  0  0  0  0
   -1.8420   -0.6171    0.0000 O   0  0  0  0  0  0  0  0  0  0  0  0
   -0.3940   -0.2258    0.0000 C   0  0  0  0  0  0  0  0  0  0  0  0
    0.6690   -1.2842    0.0000 C   0  0  0  0  0  0  0  0  0  0  0  0
    1.7319   -2.3425    0.0000 O   0  0  0  0  0  0  0  0  0  0  0  0
   -0.3894   -2.3471    0.0000 C   0  0  0  0  0  0  0  0  0  0  0  0
    0.0019   -3.7952    0.0000 O   0  0  0  0  0  0  0  0  0  0  0  0
    1.7274   -0.2212    0.0000 C   0  0  0  0  0  0  0  0  0  0  0  0
    1.3360    1.2268    0.0000 C   0  0  0  0  0  0  0  0  0  0  0  0
    2.3944    2.2898    0.0000 C   0  0  0  0  0  0  0  0  0  0  0  0
    3.8441    1.9046    0.0000 C   0  0  0  0  0  0  0  0  0  0  0  0
    4.9025    2.9676    0.0000 C   0  0  0  0  0  0  0  0  0  0  0  0
    4.2354    0.4566    0.0000 C   0  0  0  0  0  0  0  0  0  0  0  0
    3.1771   -0.6063    0.0000 C   0  0  0  0  0  0  0  0  0  0  0  0
    3.5684   -2.0544    0.0000 O   0  0  0  0  0  0  0  0  0  0  0  0
  1  2  1  0
  2  3  2  0
  3  4  1  0
  3  5  1  0
  5  6  2  0
  5  7  1  0
  7  8  1  0
  8  9  1  0
  9 10  1  1
  9 11  1  0
 11 12  1  0
  9 13  1  0
 13 14  2  0
 14 15  1  0
 15 16  2  0
 16 17  1  0
 16 18  1  0
 18 19  2  0
 19 20  1  0
 19 13  1  0
M  END
>  <identifier>  (289) 
CNP0298580.1

>  <canonical_smiles>  (289) 
C/C=C(/C)C(=O)OC[C@@](O)(CO)C1=CC=C(C)C=C1O

>  <standard_inchi>  (289) 
InChI=1S/C15H20O5/c1-4-11(3)14(18)20-9-15(19,8-16)12-6-5-10(2)7-13(12)17/h4-7,16-17,19H,8-9H2,1-3H3/b11-4-/t15-/m0/s1

>  <standard_inchi_key>  (289) 
RBDNTVALYDCCCN-WQTJRACASA-N

>  <name>  (289) 
Thymol derivI

>  <iupac_name>  (289) 
[(2~{S})-2,3-dihydroxy-2-(2-hydroxy-4-methyl-phenyl)propyl] (~{Z})-2-methylbut-2-enoate

>  <annotation_level>  (289) 
5

>  <total_atom_count>  (289) 
40

>  <heavy_atom_count>  (289) 
20

>  <molecular_weight>  (289) 
280.32

>  <exact_molecular_weight>  (289) 
280.13107

>  <molecular_formula>  (289) 
C15H20O5

>  <alogp>  (289) 
1.39

>  <topological_polar_surface_area>  (289) 
86.99

>  <rotatable_bond_count>  (289) 
5

>  <hydrogen_bond_acceptors>  (289) 
5

>  <hydrogen_bond_donors>  (289) 
3

>  <hydrogen_bond_acceptors_lipinski>  (289) 
5

>  <hydrogen_bond_donors_lipinski>  (289) 
3

>  <lipinski_rule_of_five_violations>  (289) 
0

>  <aromatic_rings_count>  (289) 
1

>  <qed_drug_likeliness>  (289) 
0.56

>  <formal_charge>  (289) 
0

>  <fractioncsp3>  (289) 
0.40

>  <number_of_minimal_rings>  (289) 
1

>  <van_der_walls_volume>  (289) 
261.29

>  <contains_sugar>  (289) 
False

>  <contains_ring_sugars>  (289) 
False

>  <contains_linear_sugars>  (289) 
False

>  <murcko_framework>  (289) 
c1ccccc1

>  <np_likeness>  (289) 
1.68

>  <chemical_class>  (289) 
Phenols

>  <chemical_sub_class>  (289) 
Cresols

>  <chemical_super_class>  (289) 
Benzenoids

>  <direct_parent_classification>  (289) 
Meta cresols

>  <np_classifier_pathway>  (289) 
Terpenoids

>  <np_classifier_superclass>  (289) 
Sesquiterpenoids

>  <np_classifier_class>  (289) 
Bisabolane sesquiterpenoids

>  <np_classifier_is_glycoside>  (289) 
False

>  <organisms>  (289) 
Hofmeisteria schaffneri

>  <collections>  (289) 
BIOFACQUIM

>  <dois>  (289) 
10.1016/j.phytochem.2008.01.011

>  <synonyms>  (289) 
Thymol derivI

>  <cas>  (289) 
nan

$$$$

     RDKit          2D

 11 11  0  0  0  0  0  0  0  0999 V2000
   -2.3942    1.5592    0.0000 O   0  0  0  0  0  0  0  0  0  0  0  0
   -2.7824    0.1103    0.0000 C   0  0  0  0  0  0  0  0  0  0  0  0
   -4.2313   -0.2780    0.0000 O   0  0  0  0  0  0  0  0  0  0  0  0
   -1.7218   -0.9504    0.0000 C   0  0  0  0  0  0  0  0  0  0  0  0
   -0.2729   -0.5622    0.0000 C   0  0  0  0  0  0  0  0  0  0  0  0
    0.1153    0.8867    0.0000 C   0  0  0  0  0  0  0  0  0  0  0  0
    1.5642    1.2750    0.0000 C   0  0  0  0  0  0  0  0  0  0  0  0
    2.6249    0.2143    0.0000 C   0  0  0  0  0  0  0  0  0  0  0  0
    4.0738    0.6025    0.0000 O   0  0  0  0  0  0  0  0  0  0  0  0
    2.2367   -1.2346    0.0000 C   0  0  0  0  0  0  0  0  0  0  0  0
    0.7878   -1.6228    0.0000 C   0  0  0  0  0  0  0  0  0  0  0  0
  1  2  2  0
  2  3  1  0
  2  4  1  0
  4  5  1  0
  5  6  2  0
  6  7  1  0
  7  8  2  0
  8  9  1  0
  8 10  1  0
 10 11  2  0
 11  5  1  0
M  END
>  <identifier>  (290) 
CNP0212603.0

>  <canonical_smiles>  (290) 
O=C(O)CC1=CC=C(O)C=C1

>  <standard_inchi>  (290) 
InChI=1S/C8H8O3/c9-7-3-1-6(2-4-7)5-8(10)11/h1-4,9H,5H2,(H,10,11)

>  <standard_inchi_key>  (290) 
XQXPVVBIMDBYFF-UHFFFAOYSA-N

>  <name>  (290) 
4-hydroxyphenylacetic acid

>  <iupac_name>  (290) 
2-(4-hydroxyphenyl)acetic acid

>  <annotation_level>  (290) 
5

>  <total_atom_count>  (290) 
19

>  <heavy_atom_count>  (290) 
11

>  <molecular_weight>  (290) 
152.15

>  <exact_molecular_weight>  (290) 
152.04734

>  <molecular_formula>  (290) 
C8H8O3

>  <alogp>  (290) 
1.02

>  <topological_polar_surface_area>  (290) 
57.53

>  <rotatable_bond_count>  (290) 
2

>  <hydrogen_bond_acceptors>  (290) 
2

>  <hydrogen_bond_donors>  (290) 
2

>  <hydrogen_bond_acceptors_lipinski>  (290) 
2

>  <hydrogen_bond_donors_lipinski>  (290) 
2

>  <lipinski_rule_of_five_violations>  (290) 
0

>  <aromatic_rings_count>  (290) 
1

>  <qed_drug_likeliness>  (290) 
0.66

>  <formal_charge>  (290) 
0

>  <fractioncsp3>  (290) 
0.13

>  <number_of_minimal_rings>  (290) 
1

>  <van_der_walls_volume>  (290) 
137.22

>  <contains_sugar>  (290) 
False

>  <contains_ring_sugars>  (290) 
False

>  <contains_linear_sugars>  (290) 
False

>  <murcko_framework>  (290) 
c1ccccc1

>  <np_likeness>  (290) 
0.37

>  <chemical_class>  (290) 
Phenols

>  <chemical_sub_class>  (290) 
1-hydroxy-2-unsubstituted benzenoids

>  <chemical_super_class>  (290) 
Benzenoids

>  <direct_parent_classification>  (290) 
1-hydroxy-2-unsubstituted benzenoids

>  <np_classifier_pathway>  (290) 
Shikimates and Phenylpropanoids

>  <np_classifier_superclass>  (290) 
Phenolic acids (C6-C1)

>  <np_classifier_class>  (290) 
Simple phenolic acids

>  <np_classifier_is_glycoside>  (290) 
False

>  <organisms>  (290) 
Actaea pachypoda|Ailanthus excelsa|Alcea rosea|Arisaema decipiens|Astilbe chinensis|Avena sativa|Boeremia exigua var. heteromorpha|Cestrum nocturnum|Citrus limonia|Cleome chrysantha|Coptotermes formosanus|Cordyceps sinensis|Dracaena surculosa|Dysidea pallescens|Ellisiophyllum pinnatum|Eriobotrya japonica|Euphorbia lagascae|Forsythia suspensa|Forsythia viridissima|Grammitis argyrata|Guanomyces polythrix|Homo sapiens|Ichthyothere connata|Kinostemon alborubrum|Libocedrus chevalieri|Manica bradleyi|Melilotus officinalis|Mus musculus|Myrica pilulifera|Olea europaea|Paeonia lactiflora|Paeonia rockii|Penicillium chrysogenum|Polyporus tumulosus|Poria juniperina|Psora corallina|Rubus saxatilis|Sassafras randaiense|Senecio callosus|Senecio scandens|Sonchus oleraceus|Spencermartinsia viticola|Spicaria divaricata|Stachylidium|Tetrapanax papyrifer|Vaccinium macrocarpon|Zea mays

>  <collections>  (290) 
AnalytiCon Discovery NPs|Australian natural products|BIOFACQUIM|CMAUP (cCollective molecular activities of useful plants)|ChEBI NPs|ChemSpider NPs|EMNPD|Exposome-explorer|FooDB|HIM (Herbal Ingredients in-vivo Metabolism database)|InterBioScreen Ltd|Latin America dataset|Marine Natural Products|NPASS|NPAtlas|Phenol-explorer|Phyto4Health|PubChem NPs|ReSpect|Super Natural II|TCMDB-Taiwan (Traditional Chinese Medicine database)|TCMID (Traditional Chinese Medicine Integrated Database)|TIPdb (database of Taiwan indigenous plants)|UNPD (Universal Natural Products Database)|VietHerb

>  <dois>  (290) 
10.1016/S0031-9422(01)00278-3|10.1016/j.arabjc.2018.01.014|10.1021/jf1017143|10.1021/np1005345|10.1021/np1008976|10.1021/np100902f|10.1071/ch9610475|10.1093/pcp/pcn183|10.3390/molecules27061860|10.3945/jn.109.113613

>  <synonyms>  (290) 
156-38-7|2-(4-hydroxyphenyl)acetic acid|p-hydroxyphenylacetic acid|benzeneacetic acid| 4-hydroxy-|4-Hydroxybenzeneacetic acid|4-hydroxyphenylacetate|Parahydroxy phenylacetic acid|4-Carboxymethylphenol|Acetic acid| (p-hydroxyphenyl)-|MFCD00004347|Parahydroxy phenylacetate|3J9SHG0RCN|CHEMBL1772|CHEBI:18101|NSC-25066|NSC-27460|4-hydroxybenzeneacetate|4HP|4-HPA|2-(4-(HYDROXY)PHENYL)ACETIC ACID|EINECS 205-851-3|UNII-3J9SHG0RCN|NSC 25066|BRN 1448766|AI3-17755|3pcg|HPAA|1ai6|4-Hydroxy-Benzeneacetate|(p-hydroxyphenyl)-Acetate|ChemDiv3_005483|bmse000455|4-hydroxyphenylethanoic acid|SCHEMBL75700|4-10-00-00543 (Beilstein Handbook Reference)|MLS001066398|(4-Hydroxy-phenyl)-essigsaeure|4-Hydroxyphenylacetic Acid|(S)|DTXSID5059745|4-Hydroxyphenylacetic acid| 98%|HMS1488J05|HMS2760I07|CS-D1503|HY-N1902|AC7824|BBL027456|BDBM50339586|s4863|STL377918|AKOS000277614|AM84511|CCG-266227|PS-5568|IDI1_023393|AC-10104|SMR000020068|SY004128|DB-043314|EU-0016214|H0290|NS00006155|EN300-18714|C00642|H-7100|A809742|AM-814\/41090691|Q4637160|Z89269462|2-(4-Hydroxyphenyl)acetic acidP-hydroxybenzeneacetic acid|4-Hydroxyphenylacetic acid| Vetec(TM) reagent grade| 98%|B977C251-72C6-4D13-AD85-937DCA3E6AF2|InChI=1\/C8H8O3\/c9-7-3-1-6(2-4-7)5-8(10)11\/h1-4|9H|5H2|(H|10|11|p-hydroxybenzoic acid

>  <cas>  (290) 
156-38-7

$$$$

     RDKit          2D

 22 23  0  0  0  0  0  0  0  0999 V2000
   -6.0501   -0.4754    0.0000 C   0  0  0  0  0  0  0  0  0  0  0  0
   -5.3470   -1.8004    0.0000 C   0  0  0  0  0  0  0  0  0  0  0  0
   -3.8479   -1.8540    0.0000 C   0  0  0  0  0  0  0  0  0  0  0  0
   -3.1448   -3.1790    0.0000 C   0  0  0  0  0  0  0  0  0  0  0  0
   -3.0520   -0.5826    0.0000 C   0  0  0  0  0  0  0  0  0  0  0  0
   -3.7551    0.7425    0.0000 O   0  0  0  0  0  0  0  0  0  0  0  0
   -1.5530   -0.6361    0.0000 O   0  0  0  0  0  0  0  0  0  0  0  0
   -0.7570    0.6353    0.0000 C   0  0  0  0  0  0  0  0  0  0  0  0
   -1.4602    1.9603    0.0000 C   0  0  0  0  0  0  0  0  0  0  0  0
   -0.6642    3.2317    0.0000 C   0  0  0  0  0  0  0  0  0  0  0  0
   -1.3673    4.5567    0.0000 C   0  0  0  0  0  0  0  0  0  0  0  0
    0.8348    3.1781    0.0000 C   0  0  0  0  0  0  0  0  0  0  0  0
    1.5379    1.8531    0.0000 C   0  0  0  0  0  0  0  0  0  0  0  0
    0.7420    0.5817    0.0000 C   0  0  0  0  0  0  0  0  0  0  0  0
    1.4451   -0.7433    0.0000 C   0  0  0  0  0  0  0  0  0  0  0  0
    2.8721   -0.2810    0.0000 C   0  0  0  0  0  0  0  0  0  0  0  0
    3.9860   -1.2856    0.0000 O   0  0  0  0  0  0  0  0  0  0  0  0
    5.4129   -0.8232    0.0000 C   0  0  0  0  0  0  0  0  0  0  0  0
    6.5268   -1.8278    0.0000 C   0  0  0  0  0  0  0  0  0  0  0  0
    5.7260    0.6437    0.0000 O   0  0  0  0  0  0  0  0  0  0  0  0
    1.6526   -2.2289    0.0000 C   0  0  0  0  0  0  0  0  0  0  0  0
    0.2623   -1.6658    0.0000 O   0  0  0  0  0  0  0  0  0  0  0  0
  1  2  1  0
  2  3  2  0
  3  4  1  0
  3  5  1  0
  5  6  2  0
  5  7  1  0
  7  8  1  0
  8  9  2  0
  9 10  1  0
 10 11  1  0
 10 12  2  0
 12 13  1  0
 13 14  2  0
 14 15  1  0
 15 16  1  1
 16 17  1  0
 17 18  1  0
 18 19  1  0
 18 20  2  0
 15 21  1  0
 21 22  1  0
 14  8  1  0
 22 15  1  0
M  END
>  <identifier>  (291) 
CNP0261217.1

>  <canonical_smiles>  (291) 
C/C=C(/C)C(=O)OC1=CC(C)=CC=C1[C@]1(COC(C)=O)CO1

>  <standard_inchi>  (291) 
InChI=1S/C17H20O5/c1-5-12(3)16(19)22-15-8-11(2)6-7-14(15)17(10-21-17)9-20-13(4)18/h5-8H,9-10H2,1-4H3/b12-5-/t17-/m0/s1

>  <standard_inchi_key>  (291) 
XRTYDFQPBORLIK-AVHYGJPMSA-N

>  <name>  (291) 
nan

>  <iupac_name>  (291) 
[2-[(2~{R})-2-(acetoxymethyl)oxiran-2-yl]-5-methyl-phenyl] (~{Z})-2-methylbut-2-enoate

>  <annotation_level>  (291) 
5

>  <total_atom_count>  (291) 
42

>  <heavy_atom_count>  (291) 
22

>  <molecular_weight>  (291) 
304.34

>  <exact_molecular_weight>  (291) 
304.13107

>  <molecular_formula>  (291) 
C17H20O5

>  <alogp>  (291) 
2.66

>  <topological_polar_surface_area>  (291) 
65.13

>  <rotatable_bond_count>  (291) 
5

>  <hydrogen_bond_acceptors>  (291) 
5

>  <hydrogen_bond_donors>  (291) 
0

>  <hydrogen_bond_acceptors_lipinski>  (291) 
5

>  <hydrogen_bond_donors_lipinski>  (291) 
0

>  <lipinski_rule_of_five_violations>  (291) 
0

>  <aromatic_rings_count>  (291) 
1

>  <qed_drug_likeliness>  (291) 
0.36

>  <formal_charge>  (291) 
0

>  <fractioncsp3>  (291) 
0.41

>  <number_of_minimal_rings>  (291) 
2

>  <van_der_walls_volume>  (291) 
284.37

>  <contains_sugar>  (291) 
False

>  <contains_ring_sugars>  (291) 
False

>  <contains_linear_sugars>  (291) 
False

>  <murcko_framework>  (291) 
O1CC1c2ccccc2

>  <np_likeness>  (291) 
1.78

>  <chemical_class>  (291) 
Phenol esters

>  <chemical_sub_class>  (291) 
Phenol esters

>  <chemical_super_class>  (291) 
Benzenoids

>  <direct_parent_classification>  (291) 
Phenol esters

>  <np_classifier_pathway>  (291) 
Polyketides

>  <np_classifier_superclass>  (291) 
nan

>  <np_classifier_class>  (291) 
nan

>  <np_classifier_is_glycoside>  (291) 
False

>  <organisms>  (291) 
Hofmeisteria schaffneri

>  <collections>  (291) 
BIOFACQUIM|Super Natural II

>  <dois>  (291) 
10.1016/j.phytochem.2008.01.011

>  <synonyms>  (291) 
Thymol derivIII

>  <cas>  (291) 
nan

$$$$

     RDKit          2D

 23 23  0  0  0  0  0  0  0  0999 V2000
   -4.0481    4.1941    0.0000 C   0  0  0  0  0  0  0  0  0  0  0  0
   -4.7325    2.8593    0.0000 C   0  0  0  0  0  0  0  0  0  0  0  0
   -3.9188    1.5992    0.0000 C   0  0  0  0  0  0  0  0  0  0  0  0
   -4.6033    0.2645    0.0000 C   0  0  0  0  0  0  0  0  0  0  0  0
   -2.4207    1.6739    0.0000 C   0  0  0  0  0  0  0  0  0  0  0  0
   -1.7363    3.0086    0.0000 O   0  0  0  0  0  0  0  0  0  0  0  0
   -1.6070    0.4137    0.0000 O   0  0  0  0  0  0  0  0  0  0  0  0
   -0.1088    0.4884    0.0000 C   0  0  0  0  0  0  0  0  0  0  0  0
    0.7049   -0.7717    0.0000 C   0  0  0  0  0  0  0  0  0  0  0  0
    1.5186   -2.0318    0.0000 O   0  0  0  0  0  0  0  0  0  0  0  0
   -0.5552   -1.5854    0.0000 C   0  0  0  0  0  0  0  0  0  0  0  0
   -0.4806   -3.0836    0.0000 O   0  0  0  0  0  0  0  0  0  0  0  0
   -1.7407   -3.8973    0.0000 C   0  0  0  0  0  0  0  0  0  0  0  0
   -1.6661   -5.3954    0.0000 C   0  0  0  0  0  0  0  0  0  0  0  0
   -3.0755   -3.2129    0.0000 O   0  0  0  0  0  0  0  0  0  0  0  0
    1.9650    0.0420    0.0000 C   0  0  0  0  0  0  0  0  0  0  0  0
    1.8903    1.5401    0.0000 C   0  0  0  0  0  0  0  0  0  0  0  0
    3.1505    2.3538    0.0000 C   0  0  0  0  0  0  0  0  0  0  0  0
    4.4852    1.6694    0.0000 C   0  0  0  0  0  0  0  0  0  0  0  0
    5.7453    2.4831    0.0000 C   0  0  0  0  0  0  0  0  0  0  0  0
    4.5598    0.1712    0.0000 C   0  0  0  0  0  0  0  0  0  0  0  0
    3.2997   -0.6425    0.0000 C   0  0  0  0  0  0  0  0  0  0  0  0
    3.3744   -2.1406    0.0000 O   0  0  0  0  0  0  0  0  0  0  0  0
  1  2  1  0
  2  3  2  0
  3  4  1  0
  3  5  1  0
  5  6  2  0
  5  7  1  0
  7  8  1  0
  8  9  1  0
  9 10  1  1
  9 11  1  0
 11 12  1  0
 12 13  1  0
 13 14  1  0
 13 15  2  0
  9 16  1  0
 16 17  2  0
 17 18  1  0
 18 19  2  0
 19 20  1  0
 19 21  1  0
 21 22  2  0
 22 23  1  0
 22 16  1  0
M  END
>  <identifier>  (292) 
CNP0210037.1

>  <canonical_smiles>  (292) 
C/C=C(/C)C(=O)OC[C@@](O)(COC(C)=O)C1=CC=C(C)C=C1O

>  <standard_inchi>  (292) 
InChI=1S/C17H22O6/c1-5-12(3)16(20)23-10-17(21,9-22-13(4)18)14-7-6-11(2)8-15(14)19/h5-8,19,21H,9-10H2,1-4H3/b12-5-/t17-/m0/s1

>  <standard_inchi_key>  (292) 
QFYNDCRFXVUINR-AVHYGJPMSA-N

>  <name>  (292) 
Thymol derivIV

>  <iupac_name>  (292) 
[(2~{S})-3-acetoxy-2-hydroxy-2-(2-hydroxy-4-methyl-phenyl)propyl] (~{Z})-2-methylbut-2-enoate

>  <annotation_level>  (292) 
5

>  <total_atom_count>  (292) 
45

>  <heavy_atom_count>  (292) 
23

>  <molecular_weight>  (292) 
322.36

>  <exact_molecular_weight>  (292) 
322.14164

>  <molecular_formula>  (292) 
C17H22O6

>  <alogp>  (292) 
1.96

>  <topological_polar_surface_area>  (292) 
93.06

>  <rotatable_bond_count>  (292) 
6

>  <hydrogen_bond_acceptors>  (292) 
6

>  <hydrogen_bond_donors>  (292) 
2

>  <hydrogen_bond_acceptors_lipinski>  (292) 
6

>  <hydrogen_bond_donors_lipinski>  (292) 
2

>  <lipinski_rule_of_five_violations>  (292) 
0

>  <aromatic_rings_count>  (292) 
1

>  <qed_drug_likeliness>  (292) 
0.61

>  <formal_charge>  (292) 
0

>  <fractioncsp3>  (292) 
0.41

>  <number_of_minimal_rings>  (292) 
1

>  <van_der_walls_volume>  (292) 
299.18

>  <contains_sugar>  (292) 
False

>  <contains_ring_sugars>  (292) 
False

>  <contains_linear_sugars>  (292) 
False

>  <murcko_framework>  (292) 
c1ccccc1

>  <np_likeness>  (292) 
1.53

>  <chemical_class>  (292) 
Phenols

>  <chemical_sub_class>  (292) 
Cresols

>  <chemical_super_class>  (292) 
Benzenoids

>  <direct_parent_classification>  (292) 
Meta cresols

>  <np_classifier_pathway>  (292) 
Terpenoids

>  <np_classifier_superclass>  (292) 
Sesquiterpenoids

>  <np_classifier_class>  (292) 
Bisabolane sesquiterpenoids

>  <np_classifier_is_glycoside>  (292) 
False

>  <organisms>  (292) 
Hofmeisteria schaffneri

>  <collections>  (292) 
BIOFACQUIM

>  <dois>  (292) 
10.1016/j.phytochem.2008.01.011

>  <synonyms>  (292) 
Thymol derivIV

>  <cas>  (292) 
nan

$$$$

     RDKit          2D

 21 23  0  0  0  0  0  0  0  0999 V2000
   -5.1059   -2.4642    0.0000 C   0  0  0  0  0  0  0  0  0  0  0  0
   -4.5116   -1.0870    0.0000 O   0  0  0  0  0  0  0  0  0  0  0  0
   -3.0217   -0.9131    0.0000 C   0  0  0  0  0  0  0  0  0  0  0  0
   -2.1261   -2.1165    0.0000 O   0  0  0  0  0  0  0  0  0  0  0  0
   -2.4273    0.4641    0.0000 C   0  0  0  0  0  0  0  0  0  0  0  0
   -3.3228    1.6674    0.0000 C   0  0  0  0  0  0  0  0  0  0  0  0
   -2.7284    3.0446    0.0000 C   0  0  0  0  0  0  0  0  0  0  0  0
   -1.2386    3.2185    0.0000 C   0  0  0  0  0  0  0  0  0  0  0  0
   -0.3430    2.0152    0.0000 C   0  0  0  0  0  0  0  0  0  0  0  0
   -0.9374    0.6380    0.0000 C   0  0  0  0  0  0  0  0  0  0  0  0
   -0.0419   -0.5654    0.0000 C   0  0  0  0  0  0  0  0  0  0  0  0
   -0.6363   -1.9426    0.0000 O   0  0  0  0  0  0  0  0  0  0  0  0
    1.4480   -0.3915    0.0000 C   0  0  0  0  0  0  0  0  0  0  0  0
    2.3435   -1.5949    0.0000 C   0  0  0  0  0  0  0  0  0  0  0  0
    1.7491   -2.9721    0.0000 O   0  0  0  0  0  0  0  0  0  0  0  0
    3.8334   -1.4210    0.0000 C   0  0  0  0  0  0  0  0  0  0  0  0
    4.4278   -0.0438    0.0000 C   0  0  0  0  0  0  0  0  0  0  0  0
    5.9177    0.1301    0.0000 C   0  0  0  0  0  0  0  0  0  0  0  0
    3.5323    1.1596    0.0000 C   0  0  0  0  0  0  0  0  0  0  0  0
    2.0424    0.9857    0.0000 C   0  0  0  0  0  0  0  0  0  0  0  0
    1.1469    2.1890    0.0000 O   0  0  0  0  0  0  0  0  0  0  0  0
  1  2  1  0
  2  3  1  0
  3  4  2  0
  3  5  1  0
  5  6  2  0
  6  7  1  0
  7  8  2  0
  8  9  1  0
  9 10  2  0
 10 11  1  0
 11 12  2  0
 11 13  1  0
 13 14  2  0
 14 15  1  0
 14 16  1  0
 16 17  2  0
 17 18  1  0
 17 19  1  0
 19 20  2  0
 20 21  1  0
 10  5  1  0
 20 13  1  0
 21  9  1  0
M  END
>  <identifier>  (293) 
CNP0142049.0

>  <canonical_smiles>  (293) 
COC(=O)C1=CC=CC2=C1C(=O)C1=C(O)C=C(C)C=C1O2

>  <standard_inchi>  (293) 
InChI=1S/C16H12O5/c1-8-6-10(17)14-12(7-8)21-11-5-3-4-9(16(19)20-2)13(11)15(14)18/h3-7,17H,1-2H3

>  <standard_inchi_key>  (293) 
YEKIIDIQOZQXAX-UHFFFAOYSA-N

>  <name>  (293) 
methyl 8-hydroxy-6-methyl-9-oxo-9H-xanthene-1-carboxylate

>  <iupac_name>  (293) 
methyl 8-hydroxy-6-methyl-9-oxo-xanthene-1-carboxylate

>  <annotation_level>  (293) 
5

>  <total_atom_count>  (293) 
33

>  <heavy_atom_count>  (293) 
21

>  <molecular_weight>  (293) 
284.27

>  <exact_molecular_weight>  (293) 
284.06847

>  <molecular_formula>  (293) 
C16H12O5

>  <alogp>  (293) 
2.75

>  <topological_polar_surface_area>  (293) 
76.74

>  <rotatable_bond_count>  (293) 
1

>  <hydrogen_bond_acceptors>  (293) 
5

>  <hydrogen_bond_donors>  (293) 
1

>  <hydrogen_bond_acceptors_lipinski>  (293) 
5

>  <hydrogen_bond_donors_lipinski>  (293) 
1

>  <lipinski_rule_of_five_violations>  (293) 
0

>  <aromatic_rings_count>  (293) 
3

>  <qed_drug_likeliness>  (293) 
0.55

>  <formal_charge>  (293) 
0

>  <fractioncsp3>  (293) 
0.13

>  <number_of_minimal_rings>  (293) 
3

>  <van_der_walls_volume>  (293) 
237.51

>  <contains_sugar>  (293) 
False

>  <contains_ring_sugars>  (293) 
False

>  <contains_linear_sugars>  (293) 
False

>  <murcko_framework>  (293) 
O1c2ccccc2Cc3ccccc13

>  <np_likeness>  (293) 
0.78

>  <chemical_class>  (293) 
Benzopyrans

>  <chemical_sub_class>  (293) 
1-benzopyrans

>  <chemical_super_class>  (293) 
Organoheterocyclic compounds

>  <direct_parent_classification>  (293) 
Xanthones

>  <np_classifier_pathway>  (293) 
Polyketides

>  <np_classifier_superclass>  (293) 
Xanthones

>  <np_classifier_class>  (293) 
Methyl xanthones

>  <np_classifier_is_glycoside>  (293) 
False

>  <organisms>  (293) 
Aspergillus sydowii|Dictyosporium sp.|Guanomyces polythrix

>  <collections>  (293) 
BIOFACQUIM|ChEBI NPs|EMNPD|Latin America dataset|NPASS|NPEdia|Super Natural II|UNPD (Universal Natural Products Database)

>  <dois>  (293) 
10.1016/S0031-9422(01)00278-3|10.1021/acs.jnatprod.8b00871|10.1021/np200374j

>  <synonyms>  (293) 
CHEBI:68226|MEGxm0_000516|CHEMBL1812027|ACon1_001729|NCGC00180199-01|methyl 8-hydroxy-6-methyl-9-oxoxanthene-1-carboxylate|Q27136719|61822-24-0|8-hydroxy-6-methyl-9-oxo-9H-xanthene-1-carboxylic acid methyl ester|8-Hydroxy-6-methylxanthone-1-carboxylic acid methyl ester

>  <cas>  (293) 
61822-24-0

$$$$

     RDKit          2D

 14 15  0  0  0  0  0  0  0  0999 V2000
   -3.9387   -1.3104    0.0000 C   0  0  0  0  0  0  0  0  0  0  0  0
   -2.4391   -1.3415    0.0000 O   0  0  0  0  0  0  0  0  0  0  0  0
   -1.6623   -0.0583    0.0000 C   0  0  0  0  0  0  0  0  0  0  0  0
   -2.3852    1.2560    0.0000 C   0  0  0  0  0  0  0  0  0  0  0  0
   -1.6084    2.5392    0.0000 C   0  0  0  0  0  0  0  0  0  0  0  0
   -0.1087    2.5081    0.0000 C   0  0  0  0  0  0  0  0  0  0  0  0
    0.6142    1.1938    0.0000 C   0  0  0  0  0  0  0  0  0  0  0  0
   -0.1626   -0.0894    0.0000 C   0  0  0  0  0  0  0  0  0  0  0  0
    0.5603   -1.4037    0.0000 C   0  0  0  0  0  0  0  0  0  0  0  0
   -0.2165   -2.6870    0.0000 O   0  0  0  0  0  0  0  0  0  0  0  0
    2.0600   -1.4349    0.0000 O   0  0  0  0  0  0  0  0  0  0  0  0
    2.8368   -0.1517    0.0000 C   0  0  0  0  0  0  0  0  0  0  0  0
    4.3364   -0.1828    0.0000 C   0  0  0  0  0  0  0  0  0  0  0  0
    2.1139    1.1627    0.0000 C   0  0  0  0  0  0  0  0  0  0  0  0
  1  2  1  0
  2  3  1  0
  3  4  2  0
  4  5  1  0
  5  6  2  0
  6  7  1  0
  7  8  2  0
  8  9  1  0
  9 10  2  0
  9 11  1  0
 11 12  1  0
 12 13  1  6
 12 14  1  0
  8  3  1  0
 14  7  1  0
M  END
>  <identifier>  (294) 
CNP0108699.1

>  <canonical_smiles>  (294) 
COC1=CC=CC2=C1C(=O)O[C@@H](C)C2

>  <standard_inchi>  (294) 
InChI=1S/C11H12O3/c1-7-6-8-4-3-5-9(13-2)10(8)11(12)14-7/h3-5,7H,6H2,1-2H3/t7-/m0/s1

>  <standard_inchi_key>  (294) 
AYIDXPPINFIJKW-ZETCQYMHSA-N

>  <name>  (294) 
(3S)-8-methoxy-3-methyl-3,4-dihydro-1H-2-benzopyran-1-one

>  <iupac_name>  (294) 
(3~{S})-8-methoxy-3-methyl-isochroman-1-one

>  <annotation_level>  (294) 
5

>  <total_atom_count>  (294) 
26

>  <heavy_atom_count>  (294) 
14

>  <molecular_weight>  (294) 
192.21

>  <exact_molecular_weight>  (294) 
192.07864

>  <molecular_formula>  (294) 
C11H12O3

>  <alogp>  (294) 
1.80

>  <topological_polar_surface_area>  (294) 
35.53

>  <rotatable_bond_count>  (294) 
1

>  <hydrogen_bond_acceptors>  (294) 
3

>  <hydrogen_bond_donors>  (294) 
0

>  <hydrogen_bond_acceptors_lipinski>  (294) 
3

>  <hydrogen_bond_donors_lipinski>  (294) 
0

>  <lipinski_rule_of_five_violations>  (294) 
0

>  <aromatic_rings_count>  (294) 
1

>  <qed_drug_likeliness>  (294) 
0.64

>  <formal_charge>  (294) 
0

>  <fractioncsp3>  (294) 
0.36

>  <number_of_minimal_rings>  (294) 
2

>  <van_der_walls_volume>  (294) 
174.98

>  <contains_sugar>  (294) 
False

>  <contains_ring_sugars>  (294) 
False

>  <contains_linear_sugars>  (294) 
False

>  <murcko_framework>  (294) 
O1Cc2ccccc2CC1

>  <np_likeness>  (294) 
1.01

>  <chemical_class>  (294) 
Benzopyrans

>  <chemical_sub_class>  (294) 
2-benzopyrans

>  <chemical_super_class>  (294) 
Organoheterocyclic compounds

>  <direct_parent_classification>  (294) 
2-benzopyrans

>  <np_classifier_pathway>  (294) 
Shikimates and Phenylpropanoids

>  <np_classifier_superclass>  (294) 
Coumarins

>  <np_classifier_class>  (294) 
Isocoumarins

>  <np_classifier_is_glycoside>  (294) 
False

>  <organisms>  (294) 
Xylaria feejeensis

>  <collections>  (294) 
BIOFACQUIM|EMNPD|Latin America dataset|Marine Natural Products|Super Natural II|ZINC NP

>  <dois>  (294) 
10.1021/np500897y

>  <synonyms>  (294) 
SCHEMBL13925631|3S-(+)-8-methoxymellein

>  <cas>  (294) 
nan

$$$$

     RDKit          2D

 18 19  0  0  0  0  0  0  0  0999 V2000
   -2.7592    2.2862    0.0000 C   0  0  0  0  0  0  0  0  0  0  0  0
   -2.6146    0.7932    0.0000 C   0  0  0  0  0  0  0  0  0  0  0  0
   -3.8352   -0.0786    0.0000 C   0  0  0  0  0  0  0  0  0  0  0  0
   -3.6906   -1.5716    0.0000 O   0  0  0  0  0  0  0  0  0  0  0  0
   -5.2006    0.5427    0.0000 O   0  0  0  0  0  0  0  0  0  0  0  0
   -1.2493    0.1720    0.0000 C   0  0  0  0  0  0  0  0  0  0  0  0
   -1.1046   -1.3210    0.0000 C   0  0  0  0  0  0  0  0  0  0  0  0
    0.2607   -1.9422    0.0000 C   0  0  0  0  0  0  0  0  0  0  0  0
    0.4053   -3.4353    0.0000 O   0  0  0  0  0  0  0  0  0  0  0  0
    1.4813   -1.0705    0.0000 C   0  0  0  0  0  0  0  0  0  0  0  0
    2.8467   -1.6917    0.0000 C   0  0  0  0  0  0  0  0  0  0  0  0
    4.0673   -0.8199    0.0000 C   0  0  0  0  0  0  0  0  0  0  0  0
    3.9227    0.6731    0.0000 C   0  0  0  0  0  0  0  0  0  0  0  0
    2.5573    1.2943    0.0000 C   0  0  0  0  0  0  0  0  0  0  0  0
    2.4127    2.7873    0.0000 C   0  0  0  0  0  0  0  0  0  0  0  0
    1.3367    0.4225    0.0000 C   0  0  0  0  0  0  0  0  0  0  0  0
    1.1920    1.9156    0.0000 C   0  0  0  0  0  0  0  0  0  0  0  0
   -0.0286    1.0438    0.0000 C   0  0  0  0  0  0  0  0  0  0  0  0
  1  2  2  0
  2  3  1  0
  3  4  2  0
  3  5  1  0
  6  2  1  1
  6  7  1  0
  7  8  1  0
  8  9  2  0
  8 10  1  0
 10 11  2  0
 11 12  1  0
 12 13  1  0
 13 14  1  0
 14 15  1  1
 14 16  1  0
 16 17  1  1
 16 18  1  0
 18  6  1  0
 16 10  1  0
M  END
>  <identifier>  (295) 
CNP0297639.1

>  <canonical_smiles>  (295) 
C=C(C(=O)O)[C@@H]1CC(=O)C2=CCC[C@H](C)[C@@]2(C)C1

>  <standard_inchi>  (295) 
InChI=1S/C15H20O3/c1-9-5-4-6-12-13(16)7-11(8-15(9,12)3)10(2)14(17)18/h6,9,11H,2,4-5,7-8H2,1,3H3,(H,17,18)/t9-,11+,15+/m0/s1

>  <standard_inchi_key>  (295) 
CPDBOUQRDMUUIN-ZVWUFJHRSA-N

>  <name>  (295) 
Dihydroflourensic acid

>  <iupac_name>  (295) 
2-[(2~{S},8~{S},8~{a}~{R})-8,8~{a}-dimethyl-4-oxo-1,2,3,6,7,8-hexahydronaphthalen-2-yl]prop-2-enoic acid

>  <annotation_level>  (295) 
5

>  <total_atom_count>  (295) 
38

>  <heavy_atom_count>  (295) 
18

>  <molecular_weight>  (295) 
248.32

>  <exact_molecular_weight>  (295) 
248.14124

>  <molecular_formula>  (295) 
C15H20O3

>  <alogp>  (295) 
2.97

>  <topological_polar_surface_area>  (295) 
54.37

>  <rotatable_bond_count>  (295) 
2

>  <hydrogen_bond_acceptors>  (295) 
2

>  <hydrogen_bond_donors>  (295) 
1

>  <hydrogen_bond_acceptors_lipinski>  (295) 
2

>  <hydrogen_bond_donors_lipinski>  (295) 
1

>  <lipinski_rule_of_five_violations>  (295) 
0

>  <aromatic_rings_count>  (295) 
0

>  <qed_drug_likeliness>  (295) 
0.76

>  <formal_charge>  (295) 
0

>  <fractioncsp3>  (295) 
0.60

>  <number_of_minimal_rings>  (295) 
2

>  <van_der_walls_volume>  (295) 
239.79

>  <contains_sugar>  (295) 
False

>  <contains_ring_sugars>  (295) 
False

>  <contains_linear_sugars>  (295) 
False

>  <murcko_framework>  (295) 
C1=C2CCCCC2CCC1

>  <np_likeness>  (295) 
2.84

>  <chemical_class>  (295) 
Prenol lipids

>  <chemical_sub_class>  (295) 
Sesquiterpenoids

>  <chemical_super_class>  (295) 
Lipids and lipid-like molecules

>  <direct_parent_classification>  (295) 
Eremophilane, 8,9-secoeremophilane and furoeremophilane sesquiterpenoids

>  <np_classifier_pathway>  (295) 
Terpenoids

>  <np_classifier_superclass>  (295) 
Sesquiterpenoids

>  <np_classifier_class>  (295) 
Eremophilane sesquiterpenoids

>  <np_classifier_is_glycoside>  (295) 
False

>  <organisms>  (295) 
Flourensia cernua

>  <collections>  (295) 
BIOFACQUIM|KNApSaCK|Latin America dataset|Super Natural II|TCMDB-Taiwan (Traditional Chinese Medicine database)|ZINC NP

>  <dois>  (295) 
10.1016/S0031-9422(03)00217-6

>  <synonyms>  (295) 
2-(8|8a-Dimethyl-4-oxo-1|2|3|4|6|7|8|8a-octahydro-naphthalen-2-yl)-acrylic acid|2-naphthaleneacetic acid| 1|2|3|4|6|7|8|8a-octahydro-8|8a-dimethyl-alpha-methylene-4-oxo-| (2S|8S|8aR)-|InChI=1\/C15H20O3\/c1-9-5-4-6-12-13(16)7-11(8-15(9|12)3)10(2)14(17)18\/h6|9|11H|2|4-5|7-8H2|1|3H3|(H|17|18)\/t9-|11+|15+\/m0\/s|rel-2-(2R|8R|8aS)-8|8a-dimethyl-4-oxo-1|2|3|4|6|7|8|8a-octahydronaphthalen-2-ylacrylic acid|Dehydroflourensic acid

>  <cas>  (295) 
nan

$$$$

     RDKit          2D

 17 19  0  0  0  0  0  0  0  0999 V2000
   -1.0474   -3.1709    0.0000 C   0  0  0  0  0  0  0  0  0  0  0  0
    0.1903   -2.3234    0.0000 C   0  0  0  0  0  0  0  0  0  0  0  0
    1.6034   -2.8265    0.0000 C   0  0  0  0  0  0  0  0  0  0  0  0
    2.5186   -1.6381    0.0000 C   0  0  0  0  0  0  0  0  0  0  0  0
    1.6711   -0.4004    0.0000 C   0  0  0  0  0  0  0  0  0  0  0  0
    0.2321   -0.8240    0.0000 C   0  0  0  0  0  0  0  0  0  0  0  0
   -0.9962    0.0370    0.0000 C   0  0  0  0  0  0  0  0  0  0  0  0
   -1.0889    1.5341    0.0000 C   0  0  0  0  0  0  0  0  0  0  0  0
    0.0237    2.5400    0.0000 C   0  0  0  0  0  0  0  0  0  0  0  0
    1.5040    2.2973    0.0000 C   0  0  0  0  0  0  0  0  0  0  0  0
    2.2371    0.9887    0.0000 C   0  0  0  0  0  0  0  0  0  0  0  0
    3.3498    1.9946    0.0000 C   0  0  0  0  0  0  0  0  0  0  0  0
    3.4654    0.1277    0.0000 O   0  0  0  0  0  0  0  0  0  0  0  0
   -2.3391    0.7052    0.0000 C   0  0  0  0  0  0  0  0  0  0  0  0
   -3.3725    1.7925    0.0000 C   0  0  0  0  0  0  0  0  0  0  0  0
   -3.2304   -0.5013    0.0000 C   0  0  0  0  0  0  0  0  0  0  0  0
   -4.7209   -0.3326    0.0000 O   0  0  0  0  0  0  0  0  0  0  0  0
  2  1  1  1
  2  3  1  0
  3  4  1  0
  5  4  1  1
  5  6  1  0
  6  7  1  1
  7  8  1  0
  8  9  1  6
  9 10  1  0
 10 11  1  0
 11 12  1  1
 11 13  1  0
  8 14  1  0
 14 15  1  1
 14 16  1  0
 16 17  1  0
  6  2  1  0
 14  7  1  0
 11  5  1  0
M  END
>  <identifier>  (296) 
CNP0159887.1

>  <canonical_smiles>  (296) 
C[C@@H]1CC[C@H]2[C@@H]1C1[C@@H](CC[C@]2(C)O)[C@@]1(C)CO

>  <standard_inchi>  (296) 
InChI=1S/C15H26O2/c1-9-4-5-10-12(9)13-11(14(13,2)8-16)6-7-15(10,3)17/h9-13,16-17H,4-8H2,1-3H3/t9-,10+,11-,12-,13?,14-,15+/m1/s1

>  <standard_inchi_key>  (296) 
PEYLVIRXSYMEHY-FHXLMMPLSA-N

>  <name>  (296) 
nan

>  <iupac_name>  (296) 
(1~{R},1~{a}~{R},4~{S},4~{a}~{S},7~{R},7~{a}~{S})-1-(hydroxymethyl)-1,4,7-trimethyl-2,3,4~{a},5,6,7,7~{a},7~{b}-octahydro-1~{a}~{H}-cyclopropa[e]azulen-4-ol

>  <annotation_level>  (296) 
5

>  <total_atom_count>  (296) 
43

>  <heavy_atom_count>  (296) 
17

>  <molecular_weight>  (296) 
238.37

>  <exact_molecular_weight>  (296) 
238.19328

>  <molecular_formula>  (296) 
C15H26O2

>  <alogp>  (296) 
2.44

>  <topological_polar_surface_area>  (296) 
40.46

>  <rotatable_bond_count>  (296) 
1

>  <hydrogen_bond_acceptors>  (296) 
2

>  <hydrogen_bond_donors>  (296) 
2

>  <hydrogen_bond_acceptors_lipinski>  (296) 
2

>  <hydrogen_bond_donors_lipinski>  (296) 
2

>  <lipinski_rule_of_five_violations>  (296) 
0

>  <aromatic_rings_count>  (296) 
0

>  <qed_drug_likeliness>  (296) 
0.74

>  <formal_charge>  (296) 
0

>  <fractioncsp3>  (296) 
1.00

>  <number_of_minimal_rings>  (296) 
3

>  <van_der_walls_volume>  (296) 
245.14

>  <contains_sugar>  (296) 
False

>  <contains_ring_sugars>  (296) 
False

>  <contains_linear_sugars>  (296) 
False

>  <murcko_framework>  (296) 
C1CC2CCCC2C3CC3C1

>  <np_likeness>  (296) 
3.24

>  <chemical_class>  (296) 
Prenol lipids

>  <chemical_sub_class>  (296) 
Sesquiterpenoids

>  <chemical_super_class>  (296) 
Lipids and lipid-like molecules

>  <direct_parent_classification>  (296) 
Guaianes

>  <np_classifier_pathway>  (296) 
Terpenoids

>  <np_classifier_superclass>  (296) 
Sesquiterpenoids

>  <np_classifier_class>  (296) 
Aromadendrane sesquiterpenoids

>  <np_classifier_is_glycoside>  (296) 
False

>  <organisms>  (296) 
Flourensia cernua

>  <collections>  (296) 
BIOFACQUIM|Latin America dataset

>  <dois>  (296) 
10.1016/S0031-9422(03)00217-6

>  <synonyms>  (296) 
Flourensadiol

>  <cas>  (296) 
nan

$$$$

     RDKit          2D

 26 26  0  0  0  0  0  0  0  0999 V2000
  -15.7690    0.7548    0.0000 C   0  0  0  0  0  0  0  0  0  0  0  0
  -14.5050   -0.0529    0.0000 C   0  0  0  0  0  0  0  0  0  0  0  0
  -13.1735    0.6378    0.0000 C   0  0  0  0  0  0  0  0  0  0  0  0
  -11.9096   -0.1700    0.0000 C   0  0  0  0  0  0  0  0  0  0  0  0
  -10.5781    0.5208    0.0000 C   0  0  0  0  0  0  0  0  0  0  0  0
   -9.3142   -0.2870    0.0000 C   0  0  0  0  0  0  0  0  0  0  0  0
   -7.9827    0.4037    0.0000 C   0  0  0  0  0  0  0  0  0  0  0  0
   -6.7187   -0.4040    0.0000 C   0  0  0  0  0  0  0  0  0  0  0  0
   -5.3872    0.2867    0.0000 C   0  0  0  0  0  0  0  0  0  0  0  0
   -4.1233   -0.5211    0.0000 C   0  0  0  0  0  0  0  0  0  0  0  0
   -2.7918    0.1696    0.0000 C   0  0  0  0  0  0  0  0  0  0  0  0
   -1.5278   -0.6381    0.0000 C   0  0  0  0  0  0  0  0  0  0  0  0
   -0.1963    0.0526    0.0000 C   0  0  0  0  0  0  0  0  0  0  0  0
    1.0676   -0.7552    0.0000 C   0  0  0  0  0  0  0  0  0  0  0  0
    2.3991   -0.0644    0.0000 C   0  0  0  0  0  0  0  0  0  0  0  0
    3.6630   -0.8722    0.0000 C   0  0  0  0  0  0  0  0  0  0  0  0
    4.9945   -0.1815    0.0000 C   0  0  0  0  0  0  0  0  0  0  0  0
    6.2585   -0.9892    0.0000 C   0  0  0  0  0  0  0  0  0  0  0  0
    7.5900   -0.2985    0.0000 C   0  0  0  0  0  0  0  0  0  0  0  0
    8.8539   -1.1063    0.0000 C   0  0  0  0  0  0  0  0  0  0  0  0
   10.1854   -0.4156    0.0000 C   0  0  0  0  0  0  0  0  0  0  0  0
   11.5269   -1.0868    0.0000 C   0  0  0  0  0  0  0  0  0  0  0  0
   12.5798   -0.0184    0.0000 C   0  0  0  0  0  0  0  0  0  0  0  0
   11.8890    1.3131    0.0000 C   0  0  0  0  0  0  0  0  0  0  0  0
   12.5603    2.6545    0.0000 O   0  0  0  0  0  0  0  0  0  0  0  0
   10.4093    1.0676    0.0000 O   0  0  0  0  0  0  0  0  0  0  0  0
  1  2  1  0
  2  3  1  0
  3  4  1  0
  4  5  1  0
  5  6  1  0
  6  7  1  0
  7  8  1  0
  8  9  1  0
  9 10  1  0
 10 11  1  0
 11 12  1  0
 12 13  1  0
 13 14  1  0
 14 15  1  0
 15 16  1  0
 16 17  1  0
 17 18  1  0
 18 19  1  0
 19 20  1  0
 21 20  1  6
 21 22  1  0
 22 23  1  0
 23 24  1  0
 24 25  2  0
 24 26  1  0
 26 21  1  0
M  END
>  <identifier>  (297) 
CNP0166760.1

>  <canonical_smiles>  (297) 
CCCCCCCCCCCCCCCCCCCC[C@H]1CCC(=O)O1

>  <standard_inchi>  (297) 
InChI=1S/C24H46O2/c1-2-3-4-5-6-7-8-9-10-11-12-13-14-15-16-17-18-19-20-23-21-22-24(25)26-23/h23H,2-22H2,1H3/t23-/m0/s1

>  <standard_inchi_key>  (297) 
AFZOXJCUHIZZDU-QHCPKHFHSA-N

>  <name>  (297) 
nan

>  <iupac_name>  (297) 
(5~{S})-5-icosyltetrahydrofuran-2-one

>  <annotation_level>  (297) 
5

>  <total_atom_count>  (297) 
72

>  <heavy_atom_count>  (297) 
26

>  <molecular_weight>  (297) 
366.63

>  <exact_molecular_weight>  (297) 
366.34978

>  <molecular_formula>  (297) 
C24H46O2

>  <alogp>  (297) 
8.12

>  <topological_polar_surface_area>  (297) 
26.30

>  <rotatable_bond_count>  (297) 
19

>  <hydrogen_bond_acceptors>  (297) 
2

>  <hydrogen_bond_donors>  (297) 
0

>  <hydrogen_bond_acceptors_lipinski>  (297) 
2

>  <hydrogen_bond_donors_lipinski>  (297) 
0

>  <lipinski_rule_of_five_violations>  (297) 
1

>  <aromatic_rings_count>  (297) 
0

>  <qed_drug_likeliness>  (297) 
0.17

>  <formal_charge>  (297) 
0

>  <fractioncsp3>  (297) 
0.96

>  <number_of_minimal_rings>  (297) 
1

>  <van_der_walls_volume>  (297) 
412.30

>  <contains_sugar>  (297) 
False

>  <contains_ring_sugars>  (297) 
False

>  <contains_linear_sugars>  (297) 
False

>  <murcko_framework>  (297) 
O1CCCC1

>  <np_likeness>  (297) 
0.90

>  <chemical_class>  (297) 
Lactones

>  <chemical_sub_class>  (297) 
Gamma butyrolactones

>  <chemical_super_class>  (297) 
Organoheterocyclic compounds

>  <direct_parent_classification>  (297) 
Gamma butyrolactones

>  <np_classifier_pathway>  (297) 
Fatty acids

>  <np_classifier_superclass>  (297) 
Fatty esters

>  <np_classifier_class>  (297) 
Lactones

>  <np_classifier_is_glycoside>  (297) 
False

>  <organisms>  (297) 
Flourensia cernua

>  <collections>  (297) 
BIOFACQUIM|NPASS|Super Natural II|TCMDB-Taiwan (Traditional Chinese Medicine database)|ZINC NP

>  <dois>  (297) 
10.1016/S0031-9422(03)00217-6

>  <synonyms>  (297) 
Tetracosan-4-olide

>  <cas>  (297) 
nan

$$$$

     RDKit          2D

 27 27  0  0  0  0  0  0  0  0999 V2000
  -16.4671    0.0546    0.0000 C   0  0  0  0  0  0  0  0  0  0  0  0
  -15.1359    0.7459    0.0000 C   0  0  0  0  0  0  0  0  0  0  0  0
  -13.8717   -0.0613    0.0000 C   0  0  0  0  0  0  0  0  0  0  0  0
  -12.5405    0.6300    0.0000 C   0  0  0  0  0  0  0  0  0  0  0  0
  -11.2762   -0.1773    0.0000 C   0  0  0  0  0  0  0  0  0  0  0  0
   -9.9450    0.5140    0.0000 C   0  0  0  0  0  0  0  0  0  0  0  0
   -8.6807   -0.2932    0.0000 C   0  0  0  0  0  0  0  0  0  0  0  0
   -7.3495    0.3981    0.0000 C   0  0  0  0  0  0  0  0  0  0  0  0
   -6.0852   -0.4091    0.0000 C   0  0  0  0  0  0  0  0  0  0  0  0
   -4.7540    0.2822    0.0000 C   0  0  0  0  0  0  0  0  0  0  0  0
   -3.4897   -0.5250    0.0000 C   0  0  0  0  0  0  0  0  0  0  0  0
   -2.1585    0.1663    0.0000 C   0  0  0  0  0  0  0  0  0  0  0  0
   -0.8942   -0.6409    0.0000 C   0  0  0  0  0  0  0  0  0  0  0  0
    0.4370    0.0504    0.0000 C   0  0  0  0  0  0  0  0  0  0  0  0
    1.7013   -0.7568    0.0000 C   0  0  0  0  0  0  0  0  0  0  0  0
    3.0325   -0.0655    0.0000 C   0  0  0  0  0  0  0  0  0  0  0  0
    4.2968   -0.8727    0.0000 C   0  0  0  0  0  0  0  0  0  0  0  0
    5.6280   -0.1814    0.0000 C   0  0  0  0  0  0  0  0  0  0  0  0
    6.8923   -0.9886    0.0000 C   0  0  0  0  0  0  0  0  0  0  0  0
    8.2235   -0.2973    0.0000 C   0  0  0  0  0  0  0  0  0  0  0  0
    9.4877   -1.1045    0.0000 C   0  0  0  0  0  0  0  0  0  0  0  0
   10.8189   -0.4132    0.0000 C   0  0  0  0  0  0  0  0  0  0  0  0
   12.1607   -1.0839    0.0000 C   0  0  0  0  0  0  0  0  0  0  0  0
   13.2131   -0.0150    0.0000 C   0  0  0  0  0  0  0  0  0  0  0  0
   12.5218    1.3162    0.0000 C   0  0  0  0  0  0  0  0  0  0  0  0
   13.1924    2.6579    0.0000 O   0  0  0  0  0  0  0  0  0  0  0  0
   11.0421    1.0701    0.0000 O   0  0  0  0  0  0  0  0  0  0  0  0
  1  2  1  0
  2  3  1  0
  3  4  1  0
  4  5  1  0
  5  6  1  0
  6  7  1  0
  7  8  1  0
  8  9  1  0
  9 10  1  0
 10 11  1  0
 11 12  1  0
 12 13  1  0
 13 14  1  0
 14 15  1  0
 15 16  1  0
 16 17  1  0
 17 18  1  0
 18 19  1  0
 19 20  1  0
 20 21  1  0
 22 21  1  6
 22 23  1  0
 23 24  1  0
 24 25  1  0
 25 26  2  0
 25 27  1  0
 27 22  1  0
M  END
>  <identifier>  (298) 
CNP0149589.1

>  <canonical_smiles>  (298) 
CCCCCCCCCCCCCCCCCCCCC[C@H]1CCC(=O)O1

>  <standard_inchi>  (298) 
InChI=1S/C25H48O2/c1-2-3-4-5-6-7-8-9-10-11-12-13-14-15-16-17-18-19-20-21-24-22-23-25(26)27-24/h24H,2-23H2,1H3/t24-/m0/s1

>  <standard_inchi_key>  (298) 
FLVQHDPEFVLJND-DEOSSOPVSA-N

>  <name>  (298) 
nan

>  <iupac_name>  (298) 
(5~{S})-5-henicosyltetrahydrofuran-2-one

>  <annotation_level>  (298) 
5

>  <total_atom_count>  (298) 
75

>  <heavy_atom_count>  (298) 
27

>  <molecular_weight>  (298) 
380.66

>  <exact_molecular_weight>  (298) 
380.36543

>  <molecular_formula>  (298) 
C25H48O2

>  <alogp>  (298) 
8.51

>  <topological_polar_surface_area>  (298) 
26.30

>  <rotatable_bond_count>  (298) 
20

>  <hydrogen_bond_acceptors>  (298) 
2

>  <hydrogen_bond_donors>  (298) 
0

>  <hydrogen_bond_acceptors_lipinski>  (298) 
2

>  <hydrogen_bond_donors_lipinski>  (298) 
0

>  <lipinski_rule_of_five_violations>  (298) 
1

>  <aromatic_rings_count>  (298) 
0

>  <qed_drug_likeliness>  (298) 
0.16

>  <formal_charge>  (298) 
0

>  <fractioncsp3>  (298) 
0.96

>  <number_of_minimal_rings>  (298) 
1

>  <van_der_walls_volume>  (298) 
429.31

>  <contains_sugar>  (298) 
False

>  <contains_ring_sugars>  (298) 
False

>  <contains_linear_sugars>  (298) 
False

>  <murcko_framework>  (298) 
O1CCCC1

>  <np_likeness>  (298) 
0.86

>  <chemical_class>  (298) 
Lactones

>  <chemical_sub_class>  (298) 
Gamma butyrolactones

>  <chemical_super_class>  (298) 
Organoheterocyclic compounds

>  <direct_parent_classification>  (298) 
Gamma butyrolactones

>  <np_classifier_pathway>  (298) 
Fatty acids

>  <np_classifier_superclass>  (298) 
Fatty esters

>  <np_classifier_class>  (298) 
Lactones

>  <np_classifier_is_glycoside>  (298) 
False

>  <organisms>  (298) 
Flourensia cernua

>  <collections>  (298) 
BIOFACQUIM|NPASS|Super Natural II|TCMDB-Taiwan (Traditional Chinese Medicine database)|ZINC NP

>  <dois>  (298) 
10.1016/S0031-9422(03)00217-6

>  <synonyms>  (298) 
Pentacosan-4-olide

>  <cas>  (298) 
nan

$$$$

     RDKit          2D

 28 28  0  0  0  0  0  0  0  0999 V2000
  -17.1024    0.7386    0.0000 C   0  0  0  0  0  0  0  0  0  0  0  0
  -15.8338   -0.0617    0.0000 C   0  0  0  0  0  0  0  0  0  0  0  0
  -14.5063    0.6367    0.0000 C   0  0  0  0  0  0  0  0  0  0  0  0
  -13.2377   -0.1636    0.0000 C   0  0  0  0  0  0  0  0  0  0  0  0
  -11.9103    0.5348    0.0000 C   0  0  0  0  0  0  0  0  0  0  0  0
  -10.6416   -0.2655    0.0000 C   0  0  0  0  0  0  0  0  0  0  0  0
   -9.3142    0.4330    0.0000 C   0  0  0  0  0  0  0  0  0  0  0  0
   -8.0455   -0.3674    0.0000 C   0  0  0  0  0  0  0  0  0  0  0  0
   -6.7181    0.3311    0.0000 C   0  0  0  0  0  0  0  0  0  0  0  0
   -5.4495   -0.4693    0.0000 C   0  0  0  0  0  0  0  0  0  0  0  0
   -4.1220    0.2292    0.0000 C   0  0  0  0  0  0  0  0  0  0  0  0
   -2.8534   -0.5712    0.0000 C   0  0  0  0  0  0  0  0  0  0  0  0
   -1.5259    0.1273    0.0000 C   0  0  0  0  0  0  0  0  0  0  0  0
   -0.2573   -0.6731    0.0000 C   0  0  0  0  0  0  0  0  0  0  0  0
    1.0701    0.0254    0.0000 C   0  0  0  0  0  0  0  0  0  0  0  0
    2.3388   -0.7750    0.0000 C   0  0  0  0  0  0  0  0  0  0  0  0
    3.6662   -0.0765    0.0000 C   0  0  0  0  0  0  0  0  0  0  0  0
    4.9348   -0.8768    0.0000 C   0  0  0  0  0  0  0  0  0  0  0  0
    6.2623   -0.1784    0.0000 C   0  0  0  0  0  0  0  0  0  0  0  0
    7.5309   -0.9787    0.0000 C   0  0  0  0  0  0  0  0  0  0  0  0
    8.8584   -0.2802    0.0000 C   0  0  0  0  0  0  0  0  0  0  0  0
   10.1270   -1.0806    0.0000 C   0  0  0  0  0  0  0  0  0  0  0  0
   11.4544   -0.3821    0.0000 C   0  0  0  0  0  0  0  0  0  0  0  0
   12.7998   -1.0455    0.0000 C   0  0  0  0  0  0  0  0  0  0  0  0
   13.8464    0.0290    0.0000 C   0  0  0  0  0  0  0  0  0  0  0  0
   13.1479    1.3564    0.0000 C   0  0  0  0  0  0  0  0  0  0  0  0
   13.8113    2.7018    0.0000 O   0  0  0  0  0  0  0  0  0  0  0  0
   11.6696    1.1024    0.0000 O   0  0  0  0  0  0  0  0  0  0  0  0
  1  2  1  0
  2  3  1  0
  3  4  1  0
  4  5  1  0
  5  6  1  0
  6  7  1  0
  7  8  1  0
  8  9  1  0
  9 10  1  0
 10 11  1  0
 11 12  1  0
 12 13  1  0
 13 14  1  0
 14 15  1  0
 15 16  1  0
 16 17  1  0
 17 18  1  0
 18 19  1  0
 19 20  1  0
 20 21  1  0
 21 22  1  0
 23 22  1  6
 23 24  1  0
 24 25  1  0
 25 26  1  0
 26 27  2  0
 26 28  1  0
 28 23  1  0
M  END
>  <identifier>  (299) 
CNP0248829.1

>  <canonical_smiles>  (299) 
CCCCCCCCCCCCCCCCCCCCCC[C@H]1CCC(=O)O1

>  <standard_inchi>  (299) 
InChI=1S/C26H50O2/c1-2-3-4-5-6-7-8-9-10-11-12-13-14-15-16-17-18-19-20-21-22-25-23-24-26(27)28-25/h25H,2-24H2,1H3/t25-/m0/s1

>  <standard_inchi_key>  (299) 
KWOWNYUWWHKUCK-VWLOTQADSA-N

>  <name>  (299) 
nan

>  <iupac_name>  (299) 
(5~{S})-5-docosyltetrahydrofuran-2-one

>  <annotation_level>  (299) 
5

>  <total_atom_count>  (299) 
78

>  <heavy_atom_count>  (299) 
28

>  <molecular_weight>  (299) 
394.68

>  <exact_molecular_weight>  (299) 
394.38108

>  <molecular_formula>  (299) 
C26H50O2

>  <alogp>  (299) 
8.90

>  <topological_polar_surface_area>  (299) 
26.30

>  <rotatable_bond_count>  (299) 
21

>  <hydrogen_bond_acceptors>  (299) 
2

>  <hydrogen_bond_donors>  (299) 
0

>  <hydrogen_bond_acceptors_lipinski>  (299) 
2

>  <hydrogen_bond_donors_lipinski>  (299) 
0

>  <lipinski_rule_of_five_violations>  (299) 
1

>  <aromatic_rings_count>  (299) 
0

>  <qed_drug_likeliness>  (299) 
0.14

>  <formal_charge>  (299) 
0

>  <fractioncsp3>  (299) 
0.96

>  <number_of_minimal_rings>  (299) 
1

>  <van_der_walls_volume>  (299) 
443.33

>  <contains_sugar>  (299) 
False

>  <contains_ring_sugars>  (299) 
False

>  <contains_linear_sugars>  (299) 
False

>  <murcko_framework>  (299) 
O1CCCC1

>  <np_likeness>  (299) 
0.83

>  <chemical_class>  (299) 
Lactones

>  <chemical_sub_class>  (299) 
Gamma butyrolactones

>  <chemical_super_class>  (299) 
Organoheterocyclic compounds

>  <direct_parent_classification>  (299) 
Gamma butyrolactones

>  <np_classifier_pathway>  (299) 
Fatty acids

>  <np_classifier_superclass>  (299) 
Fatty esters

>  <np_classifier_class>  (299) 
Lactones

>  <np_classifier_is_glycoside>  (299) 
False

>  <organisms>  (299) 
Flourensia cernua|Saussurea involucrata

>  <collections>  (299) 
BIOFACQUIM|CMAUP (cCollective molecular activities of useful plants)|NPASS|Super Natural II|TCMDB-Taiwan (Traditional Chinese Medicine database)|ZINC NP

>  <dois>  (299) 
10.1016/S0031-9422(03)00217-6

>  <synonyms>  (299) 
Hexacosan-4-olide

>  <cas>  (299) 
nan

$$$$

     RDKit          2D

 29 29  0  0  0  0  0  0  0  0999 V2000
  -17.7944    0.0346    0.0000 C   0  0  0  0  0  0  0  0  0  0  0  0
  -16.4671    0.7334    0.0000 C   0  0  0  0  0  0  0  0  0  0  0  0
  -15.1983   -0.0667    0.0000 C   0  0  0  0  0  0  0  0  0  0  0  0
  -13.8710    0.6321    0.0000 C   0  0  0  0  0  0  0  0  0  0  0  0
  -12.6022   -0.1680    0.0000 C   0  0  0  0  0  0  0  0  0  0  0  0
  -11.2749    0.5308    0.0000 C   0  0  0  0  0  0  0  0  0  0  0  0
  -10.0061   -0.2692    0.0000 C   0  0  0  0  0  0  0  0  0  0  0  0
   -8.6788    0.4295    0.0000 C   0  0  0  0  0  0  0  0  0  0  0  0
   -7.4099   -0.3705    0.0000 C   0  0  0  0  0  0  0  0  0  0  0  0
   -6.0827    0.3283    0.0000 C   0  0  0  0  0  0  0  0  0  0  0  0
   -4.8138   -0.4718    0.0000 C   0  0  0  0  0  0  0  0  0  0  0  0
   -3.4866    0.2270    0.0000 C   0  0  0  0  0  0  0  0  0  0  0  0
   -2.2177   -0.5731    0.0000 C   0  0  0  0  0  0  0  0  0  0  0  0
   -0.8905    0.1257    0.0000 C   0  0  0  0  0  0  0  0  0  0  0  0
    0.3784   -0.6744    0.0000 C   0  0  0  0  0  0  0  0  0  0  0  0
    1.7056    0.0244    0.0000 C   0  0  0  0  0  0  0  0  0  0  0  0
    2.9745   -0.7756    0.0000 C   0  0  0  0  0  0  0  0  0  0  0  0
    4.3017   -0.0769    0.0000 C   0  0  0  0  0  0  0  0  0  0  0  0
    5.5706   -0.8769    0.0000 C   0  0  0  0  0  0  0  0  0  0  0  0
    6.8978   -0.1781    0.0000 C   0  0  0  0  0  0  0  0  0  0  0  0
    8.1667   -0.9782    0.0000 C   0  0  0  0  0  0  0  0  0  0  0  0
    9.4939   -0.2794    0.0000 C   0  0  0  0  0  0  0  0  0  0  0  0
   10.7628   -1.0795    0.0000 C   0  0  0  0  0  0  0  0  0  0  0  0
   12.0900   -0.3807    0.0000 C   0  0  0  0  0  0  0  0  0  0  0  0
   13.4355   -1.0438    0.0000 C   0  0  0  0  0  0  0  0  0  0  0  0
   14.4819    0.0310    0.0000 C   0  0  0  0  0  0  0  0  0  0  0  0
   13.7831    1.3583    0.0000 C   0  0  0  0  0  0  0  0  0  0  0  0
   14.4462    2.7038    0.0000 O   0  0  0  0  0  0  0  0  0  0  0  0
   12.3049    1.1038    0.0000 O   0  0  0  0  0  0  0  0  0  0  0  0
  1  2  1  0
  2  3  1  0
  3  4  1  0
  4  5  1  0
  5  6  1  0
  6  7  1  0
  7  8  1  0
  8  9  1  0
  9 10  1  0
 10 11  1  0
 11 12  1  0
 12 13  1  0
 13 14  1  0
 14 15  1  0
 15 16  1  0
 16 17  1  0
 17 18  1  0
 18 19  1  0
 19 20  1  0
 20 21  1  0
 21 22  1  0
 22 23  1  0
 24 23  1  6
 24 25  1  0
 25 26  1  0
 26 27  1  0
 27 28  2  0
 27 29  1  0
 29 24  1  0
M  END
>  <identifier>  (300) 
CNP0291608.1

>  <canonical_smiles>  (300) 
CCCCCCCCCCCCCCCCCCCCCCC[C@H]1CCC(=O)O1

>  <standard_inchi>  (300) 
InChI=1S/C27H52O2/c1-2-3-4-5-6-7-8-9-10-11-12-13-14-15-16-17-18-19-20-21-22-23-26-24-25-27(28)29-26/h26H,2-25H2,1H3/t26-/m0/s1

>  <standard_inchi_key>  (300) 
RATVVPKFLMJAST-SANMLTNESA-N

>  <name>  (300) 
nan

>  <iupac_name>  (300) 
(5~{S})-5-tricosyltetrahydrofuran-2-one

>  <annotation_level>  (300) 
5

>  <total_atom_count>  (300) 
81

>  <heavy_atom_count>  (300) 
29

>  <molecular_weight>  (300) 
408.71

>  <exact_molecular_weight>  (300) 
408.39673

>  <molecular_formula>  (300) 
C27H52O2

>  <alogp>  (300) 
9.29

>  <topological_polar_surface_area>  (300) 
26.30

>  <rotatable_bond_count>  (300) 
22

>  <hydrogen_bond_acceptors>  (300) 
2

>  <hydrogen_bond_donors>  (300) 
0

>  <hydrogen_bond_acceptors_lipinski>  (300) 
2

>  <hydrogen_bond_donors_lipinski>  (300) 
0

>  <lipinski_rule_of_five_violations>  (300) 
1

>  <aromatic_rings_count>  (300) 
0

>  <qed_drug_likeliness>  (300) 
0.13

>  <formal_charge>  (300) 
0

>  <fractioncsp3>  (300) 
0.96

>  <number_of_minimal_rings>  (300) 
1

>  <van_der_walls_volume>  (300) 
464.19

>  <contains_sugar>  (300) 
False

>  <contains_ring_sugars>  (300) 
False

>  <contains_linear_sugars>  (300) 
False

>  <murcko_framework>  (300) 
O1CCCC1

>  <np_likeness>  (300) 
0.80

>  <chemical_class>  (300) 
Lactones

>  <chemical_sub_class>  (300) 
Gamma butyrolactones

>  <chemical_super_class>  (300) 
Organoheterocyclic compounds

>  <direct_parent_classification>  (300) 
Gamma butyrolactones

>  <np_classifier_pathway>  (300) 
Fatty acids

>  <np_classifier_superclass>  (300) 
Fatty esters

>  <np_classifier_class>  (300) 
Lactones

>  <np_classifier_is_glycoside>  (300) 
False

>  <organisms>  (300) 
Flourensia cernua

>  <collections>  (300) 
BIOFACQUIM|NPASS|TCMDB-Taiwan (Traditional Chinese Medicine database)|ZINC NP

>  <dois>  (300) 
10.1016/S0031-9422(03)00217-6

>  <synonyms>  (300) 
Heptacosan-4-olide

>  <cas>  (300) 
nan

$$$$

     RDKit          2D

 30 30  0  0  0  0  0  0  0  0999 V2000
  -18.4312    0.7236    0.0000 C   0  0  0  0  0  0  0  0  0  0  0  0
  -17.1588   -0.0707    0.0000 C   0  0  0  0  0  0  0  0  0  0  0  0
  -15.8347    0.6341    0.0000 C   0  0  0  0  0  0  0  0  0  0  0  0
  -14.5622   -0.1603    0.0000 C   0  0  0  0  0  0  0  0  0  0  0  0
  -13.2381    0.5445    0.0000 C   0  0  0  0  0  0  0  0  0  0  0  0
  -11.9657   -0.2498    0.0000 C   0  0  0  0  0  0  0  0  0  0  0  0
  -10.6416    0.4550    0.0000 C   0  0  0  0  0  0  0  0  0  0  0  0
   -9.3692   -0.3394    0.0000 C   0  0  0  0  0  0  0  0  0  0  0  0
   -8.0451    0.3654    0.0000 C   0  0  0  0  0  0  0  0  0  0  0  0
   -6.7726   -0.4289    0.0000 C   0  0  0  0  0  0  0  0  0  0  0  0
   -5.4485    0.2758    0.0000 C   0  0  0  0  0  0  0  0  0  0  0  0
   -4.1761   -0.5185    0.0000 C   0  0  0  0  0  0  0  0  0  0  0  0
   -2.8520    0.1863    0.0000 C   0  0  0  0  0  0  0  0  0  0  0  0
   -1.5796   -0.6080    0.0000 C   0  0  0  0  0  0  0  0  0  0  0  0
   -0.2555    0.0967    0.0000 C   0  0  0  0  0  0  0  0  0  0  0  0
    1.0170   -0.6976    0.0000 C   0  0  0  0  0  0  0  0  0  0  0  0
    2.3411    0.0072    0.0000 C   0  0  0  0  0  0  0  0  0  0  0  0
    3.6135   -0.7872    0.0000 C   0  0  0  0  0  0  0  0  0  0  0  0
    4.9376   -0.0824    0.0000 C   0  0  0  0  0  0  0  0  0  0  0  0
    6.2100   -0.8767    0.0000 C   0  0  0  0  0  0  0  0  0  0  0  0
    7.5341   -0.1719    0.0000 C   0  0  0  0  0  0  0  0  0  0  0  0
    8.8066   -0.9663    0.0000 C   0  0  0  0  0  0  0  0  0  0  0  0
   10.1307   -0.2615    0.0000 C   0  0  0  0  0  0  0  0  0  0  0  0
   11.4031   -1.0558    0.0000 C   0  0  0  0  0  0  0  0  0  0  0  0
   12.7272   -0.3511    0.0000 C   0  0  0  0  0  0  0  0  0  0  0  0
   14.0757   -1.0080    0.0000 C   0  0  0  0  0  0  0  0  0  0  0  0
   15.1172    0.0714    0.0000 C   0  0  0  0  0  0  0  0  0  0  0  0
   14.4124    1.3955    0.0000 C   0  0  0  0  0  0  0  0  0  0  0  0
   15.0694    2.7440    0.0000 O   0  0  0  0  0  0  0  0  0  0  0  0
   12.9353    1.1344    0.0000 O   0  0  0  0  0  0  0  0  0  0  0  0
  1  2  1  0
  2  3  1  0
  3  4  1  0
  4  5  1  0
  5  6  1  0
  6  7  1  0
  7  8  1  0
  8  9  1  0
  9 10  1  0
 10 11  1  0
 11 12  1  0
 12 13  1  0
 13 14  1  0
 14 15  1  0
 15 16  1  0
 16 17  1  0
 17 18  1  0
 18 19  1  0
 19 20  1  0
 20 21  1  0
 21 22  1  0
 22 23  1  0
 23 24  1  0
 25 24  1  6
 25 26  1  0
 26 27  1  0
 27 28  1  0
 28 29  2  0
 28 30  1  0
 30 25  1  0
M  END
>  <identifier>  (301) 
CNP0304249.1

>  <canonical_smiles>  (301) 
CCCCCCCCCCCCCCCCCCCCCCCC[C@H]1CCC(=O)O1

>  <standard_inchi>  (301) 
InChI=1S/C28H54O2/c1-2-3-4-5-6-7-8-9-10-11-12-13-14-15-16-17-18-19-20-21-22-23-24-27-25-26-28(29)30-27/h27H,2-26H2,1H3/t27-/m0/s1

>  <standard_inchi_key>  (301) 
JBDGMANPHCRIOU-MHZLTWQESA-N

>  <name>  (301) 
nan

>  <iupac_name>  (301) 
(5~{S})-5-tetracosyltetrahydrofuran-2-one

>  <annotation_level>  (301) 
5

>  <total_atom_count>  (301) 
84

>  <heavy_atom_count>  (301) 
30

>  <molecular_weight>  (301) 
422.74

>  <exact_molecular_weight>  (301) 
422.41238

>  <molecular_formula>  (301) 
C28H54O2

>  <alogp>  (301) 
9.68

>  <topological_polar_surface_area>  (301) 
26.30

>  <rotatable_bond_count>  (301) 
23

>  <hydrogen_bond_acceptors>  (301) 
2

>  <hydrogen_bond_donors>  (301) 
0

>  <hydrogen_bond_acceptors_lipinski>  (301) 
2

>  <hydrogen_bond_donors_lipinski>  (301) 
0

>  <lipinski_rule_of_five_violations>  (301) 
1

>  <aromatic_rings_count>  (301) 
0

>  <qed_drug_likeliness>  (301) 
0.12

>  <formal_charge>  (301) 
0

>  <fractioncsp3>  (301) 
0.96

>  <number_of_minimal_rings>  (301) 
1

>  <van_der_walls_volume>  (301) 
478.44

>  <contains_sugar>  (301) 
False

>  <contains_ring_sugars>  (301) 
False

>  <contains_linear_sugars>  (301) 
False

>  <murcko_framework>  (301) 
O1CCCC1

>  <np_likeness>  (301) 
0.78

>  <chemical_class>  (301) 
Lactones

>  <chemical_sub_class>  (301) 
Gamma butyrolactones

>  <chemical_super_class>  (301) 
Organoheterocyclic compounds

>  <direct_parent_classification>  (301) 
Gamma butyrolactones

>  <np_classifier_pathway>  (301) 
Fatty acids

>  <np_classifier_superclass>  (301) 
Fatty esters

>  <np_classifier_class>  (301) 
Lactones

>  <np_classifier_is_glycoside>  (301) 
False

>  <organisms>  (301) 
Flourensia cernua

>  <collections>  (301) 
BIOFACQUIM|Super Natural II|TCMDB-Taiwan (Traditional Chinese Medicine database)|ZINC NP

>  <dois>  (301) 
10.1016/S0031-9422(03)00217-6

>  <synonyms>  (301) 
Octacosan-4-olide

>  <cas>  (301) 
nan

$$$$

     RDKit          2D

 31 31  0  0  0  0  0  0  0  0999 V2000
  -19.1180    0.0164    0.0000 C   0  0  0  0  0  0  0  0  0  0  0  0
  -17.7940    0.7213    0.0000 C   0  0  0  0  0  0  0  0  0  0  0  0
  -16.5215   -0.0729    0.0000 C   0  0  0  0  0  0  0  0  0  0  0  0
  -15.1974    0.6320    0.0000 C   0  0  0  0  0  0  0  0  0  0  0  0
  -13.9250   -0.1622    0.0000 C   0  0  0  0  0  0  0  0  0  0  0  0
  -12.6009    0.5427    0.0000 C   0  0  0  0  0  0  0  0  0  0  0  0
  -11.3284   -0.2515    0.0000 C   0  0  0  0  0  0  0  0  0  0  0  0
  -10.0044    0.4534    0.0000 C   0  0  0  0  0  0  0  0  0  0  0  0
   -8.7319   -0.3408    0.0000 C   0  0  0  0  0  0  0  0  0  0  0  0
   -7.4078    0.3641    0.0000 C   0  0  0  0  0  0  0  0  0  0  0  0
   -6.1353   -0.4301    0.0000 C   0  0  0  0  0  0  0  0  0  0  0  0
   -4.8113    0.2748    0.0000 C   0  0  0  0  0  0  0  0  0  0  0  0
   -3.5388   -0.5194    0.0000 C   0  0  0  0  0  0  0  0  0  0  0  0
   -2.2147    0.1855    0.0000 C   0  0  0  0  0  0  0  0  0  0  0  0
   -0.9423   -0.6087    0.0000 C   0  0  0  0  0  0  0  0  0  0  0  0
    0.3818    0.0962    0.0000 C   0  0  0  0  0  0  0  0  0  0  0  0
    1.6543   -0.6981    0.0000 C   0  0  0  0  0  0  0  0  0  0  0  0
    2.9783    0.0069    0.0000 C   0  0  0  0  0  0  0  0  0  0  0  0
    4.2508   -0.7874    0.0000 C   0  0  0  0  0  0  0  0  0  0  0  0
    5.5749   -0.0825    0.0000 C   0  0  0  0  0  0  0  0  0  0  0  0
    6.8474   -0.8767    0.0000 C   0  0  0  0  0  0  0  0  0  0  0  0
    8.1714   -0.1718    0.0000 C   0  0  0  0  0  0  0  0  0  0  0  0
    9.4439   -0.9660    0.0000 C   0  0  0  0  0  0  0  0  0  0  0  0
   10.7680   -0.2611    0.0000 C   0  0  0  0  0  0  0  0  0  0  0  0
   12.0405   -1.0553    0.0000 C   0  0  0  0  0  0  0  0  0  0  0  0
   13.3645   -0.3504    0.0000 C   0  0  0  0  0  0  0  0  0  0  0  0
   14.7130   -1.0072    0.0000 C   0  0  0  0  0  0  0  0  0  0  0  0
   15.7545    0.0723    0.0000 C   0  0  0  0  0  0  0  0  0  0  0  0
   15.0496    1.3964    0.0000 C   0  0  0  0  0  0  0  0  0  0  0  0
   15.7064    2.7449    0.0000 O   0  0  0  0  0  0  0  0  0  0  0  0
   13.5725    1.1351    0.0000 O   0  0  0  0  0  0  0  0  0  0  0  0
  1  2  1  0
  2  3  1  0
  3  4  1  0
  4  5  1  0
  5  6  1  0
  6  7  1  0
  7  8  1  0
  8  9  1  0
  9 10  1  0
 10 11  1  0
 11 12  1  0
 12 13  1  0
 13 14  1  0
 14 15  1  0
 15 16  1  0
 16 17  1  0
 17 18  1  0
 18 19  1  0
 19 20  1  0
 20 21  1  0
 21 22  1  0
 22 23  1  0
 23 24  1  0
 24 25  1  0
 26 25  1  6
 26 27  1  0
 27 28  1  0
 28 29  1  0
 29 30  2  0
 29 31  1  0
 31 26  1  0
M  END
>  <identifier>  (302) 
CNP0324274.1

>  <canonical_smiles>  (302) 
CCCCCCCCCCCCCCCCCCCCCCCCC[C@H]1CCC(=O)O1

>  <standard_inchi>  (302) 
InChI=1S/C29H56O2/c1-2-3-4-5-6-7-8-9-10-11-12-13-14-15-16-17-18-19-20-21-22-23-24-25-28-26-27-29(30)31-28/h28H,2-27H2,1H3/t28-/m0/s1

>  <standard_inchi_key>  (302) 
BYWVQXXACNFXHT-NDEPHWFRSA-N

>  <name>  (302) 
nan

>  <iupac_name>  (302) 
(5~{S})-5-pentacosyltetrahydrofuran-2-one

>  <annotation_level>  (302) 
5

>  <total_atom_count>  (302) 
87

>  <heavy_atom_count>  (302) 
31

>  <molecular_weight>  (302) 
436.77

>  <exact_molecular_weight>  (302) 
436.42803

>  <molecular_formula>  (302) 
C29H56O2

>  <alogp>  (302) 
10.07

>  <topological_polar_surface_area>  (302) 
26.30

>  <rotatable_bond_count>  (302) 
24

>  <hydrogen_bond_acceptors>  (302) 
2

>  <hydrogen_bond_donors>  (302) 
0

>  <hydrogen_bond_acceptors_lipinski>  (302) 
2

>  <hydrogen_bond_donors_lipinski>  (302) 
0

>  <lipinski_rule_of_five_violations>  (302) 
1

>  <aromatic_rings_count>  (302) 
0

>  <qed_drug_likeliness>  (302) 
0.11

>  <formal_charge>  (302) 
0

>  <fractioncsp3>  (302) 
0.97

>  <number_of_minimal_rings>  (302) 
1

>  <van_der_walls_volume>  (302) 
494.58

>  <contains_sugar>  (302) 
False

>  <contains_ring_sugars>  (302) 
False

>  <contains_linear_sugars>  (302) 
False

>  <murcko_framework>  (302) 
O1CCCC1

>  <np_likeness>  (302) 
0.75

>  <chemical_class>  (302) 
Lactones

>  <chemical_sub_class>  (302) 
Gamma butyrolactones

>  <chemical_super_class>  (302) 
Organoheterocyclic compounds

>  <direct_parent_classification>  (302) 
Gamma butyrolactones

>  <np_classifier_pathway>  (302) 
Fatty acids

>  <np_classifier_superclass>  (302) 
Fatty esters

>  <np_classifier_class>  (302) 
Lactones

>  <np_classifier_is_glycoside>  (302) 
False

>  <organisms>  (302) 
Flourensia cernua

>  <collections>  (302) 
BIOFACQUIM|NPASS|Super Natural II|TCMDB-Taiwan (Traditional Chinese Medicine database)|ZINC NP

>  <dois>  (302) 
10.1016/S0031-9422(03)00217-6

>  <synonyms>  (302) 
Nonacosan-4-olide

>  <cas>  (302) 
nan

$$$$

     RDKit          2D

 32 32  0  0  0  0  0  0  0  0999 V2000
  -19.7562    0.7097    0.0000 C   0  0  0  0  0  0  0  0  0  0  0  0
  -18.4807   -0.0796    0.0000 C   0  0  0  0  0  0  0  0  0  0  0  0
  -17.1593    0.6304    0.0000 C   0  0  0  0  0  0  0  0  0  0  0  0
  -15.8838   -0.1590    0.0000 C   0  0  0  0  0  0  0  0  0  0  0  0
  -14.5625    0.5510    0.0000 C   0  0  0  0  0  0  0  0  0  0  0  0
  -13.2869   -0.2384    0.0000 C   0  0  0  0  0  0  0  0  0  0  0  0
  -11.9656    0.4716    0.0000 C   0  0  0  0  0  0  0  0  0  0  0  0
  -10.6901   -0.3177    0.0000 C   0  0  0  0  0  0  0  0  0  0  0  0
   -9.3687    0.3922    0.0000 C   0  0  0  0  0  0  0  0  0  0  0  0
   -8.0932   -0.3971    0.0000 C   0  0  0  0  0  0  0  0  0  0  0  0
   -6.7719    0.3129    0.0000 C   0  0  0  0  0  0  0  0  0  0  0  0
   -5.4963   -0.4765    0.0000 C   0  0  0  0  0  0  0  0  0  0  0  0
   -4.1750    0.2335    0.0000 C   0  0  0  0  0  0  0  0  0  0  0  0
   -2.8995   -0.5559    0.0000 C   0  0  0  0  0  0  0  0  0  0  0  0
   -1.5781    0.1541    0.0000 C   0  0  0  0  0  0  0  0  0  0  0  0
   -0.3026   -0.6352    0.0000 C   0  0  0  0  0  0  0  0  0  0  0  0
    1.0187    0.0747    0.0000 C   0  0  0  0  0  0  0  0  0  0  0  0
    2.2942   -0.7146    0.0000 C   0  0  0  0  0  0  0  0  0  0  0  0
    3.6156   -0.0047    0.0000 C   0  0  0  0  0  0  0  0  0  0  0  0
    4.8911   -0.7940    0.0000 C   0  0  0  0  0  0  0  0  0  0  0  0
    6.2125   -0.0840    0.0000 C   0  0  0  0  0  0  0  0  0  0  0  0
    7.4880   -0.8734    0.0000 C   0  0  0  0  0  0  0  0  0  0  0  0
    8.8093   -0.1634    0.0000 C   0  0  0  0  0  0  0  0  0  0  0  0
   10.0848   -0.9527    0.0000 C   0  0  0  0  0  0  0  0  0  0  0  0
   11.4062   -0.2428    0.0000 C   0  0  0  0  0  0  0  0  0  0  0  0
   12.6817   -1.0321    0.0000 C   0  0  0  0  0  0  0  0  0  0  0  0
   14.0030   -0.3222    0.0000 C   0  0  0  0  0  0  0  0  0  0  0  0
   15.3541   -0.9738    0.0000 C   0  0  0  0  0  0  0  0  0  0  0  0
   16.3914    0.1097    0.0000 C   0  0  0  0  0  0  0  0  0  0  0  0
   15.6814    1.4310    0.0000 C   0  0  0  0  0  0  0  0  0  0  0  0
   16.3331    2.7821    0.0000 O   0  0  0  0  0  0  0  0  0  0  0  0
   14.2053    1.1641    0.0000 O   0  0  0  0  0  0  0  0  0  0  0  0
  1  2  1  0
  2  3  1  0
  3  4  1  0
  4  5  1  0
  5  6  1  0
  6  7  1  0
  7  8  1  0
  8  9  1  0
  9 10  1  0
 10 11  1  0
 11 12  1  0
 12 13  1  0
 13 14  1  0
 14 15  1  0
 15 16  1  0
 16 17  1  0
 17 18  1  0
 18 19  1  0
 19 20  1  0
 20 21  1  0
 21 22  1  0
 22 23  1  0
 23 24  1  0
 24 25  1  0
 25 26  1  0
 27 26  1  6
 27 28  1  0
 28 29  1  0
 29 30  1  0
 30 31  2  0
 30 32  1  0
 32 27  1  0
M  END
>  <identifier>  (303) 
CNP0333579.1

>  <canonical_smiles>  (303) 
CCCCCCCCCCCCCCCCCCCCCCCCCC[C@H]1CCC(=O)O1

>  <standard_inchi>  (303) 
InChI=1S/C30H58O2/c1-2-3-4-5-6-7-8-9-10-11-12-13-14-15-16-17-18-19-20-21-22-23-24-25-26-29-27-28-30(31)32-29/h29H,2-28H2,1H3/t29-/m0/s1

>  <standard_inchi_key>  (303) 
YLLQOTIGQVCOEH-LJAQVGFWSA-N

>  <name>  (303) 
nan

>  <iupac_name>  (303) 
(5~{S})-5-hexacosyltetrahydrofuran-2-one

>  <annotation_level>  (303) 
5

>  <total_atom_count>  (303) 
90

>  <heavy_atom_count>  (303) 
32

>  <molecular_weight>  (303) 
450.79

>  <exact_molecular_weight>  (303) 
450.44368

>  <molecular_formula>  (303) 
C30H58O2

>  <alogp>  (303) 
10.46

>  <topological_polar_surface_area>  (303) 
26.30

>  <rotatable_bond_count>  (303) 
25

>  <hydrogen_bond_acceptors>  (303) 
2

>  <hydrogen_bond_donors>  (303) 
0

>  <hydrogen_bond_acceptors_lipinski>  (303) 
2

>  <hydrogen_bond_donors_lipinski>  (303) 
0

>  <lipinski_rule_of_five_violations>  (303) 
1

>  <aromatic_rings_count>  (303) 
0

>  <qed_drug_likeliness>  (303) 
0.10

>  <formal_charge>  (303) 
0

>  <fractioncsp3>  (303) 
0.97

>  <number_of_minimal_rings>  (303) 
1

>  <van_der_walls_volume>  (303) 
513.55

>  <contains_sugar>  (303) 
False

>  <contains_ring_sugars>  (303) 
False

>  <contains_linear_sugars>  (303) 
False

>  <murcko_framework>  (303) 
O1CCCC1

>  <np_likeness>  (303) 
0.73

>  <chemical_class>  (303) 
Lactones

>  <chemical_sub_class>  (303) 
Gamma butyrolactones

>  <chemical_super_class>  (303) 
Organoheterocyclic compounds

>  <direct_parent_classification>  (303) 
Gamma butyrolactones

>  <np_classifier_pathway>  (303) 
Fatty acids

>  <np_classifier_superclass>  (303) 
Fatty esters

>  <np_classifier_class>  (303) 
Lactones

>  <np_classifier_is_glycoside>  (303) 
False

>  <organisms>  (303) 
Flourensia cernua

>  <collections>  (303) 
BIOFACQUIM|NPASS|Super Natural II|TCMDB-Taiwan (Traditional Chinese Medicine database)|ZINC NP

>  <dois>  (303) 
10.1016/S0031-9422(03)00217-6

>  <synonyms>  (303) 
Triacontan-4-olide

>  <cas>  (303) 
nan

$$$$

     RDKit          2D

 19 21  0  0  0  0  0  0  0  0999 V2000
   -3.8697   -1.9657    0.0000 C   0  0  0  0  0  0  0  0  0  0  0  0
   -3.2211   -0.6132    0.0000 C   0  0  0  0  0  0  0  0  0  0  0  0
   -1.7456   -0.3430    0.0000 C   0  0  0  0  0  0  0  0  0  0  0  0
   -0.5575   -1.2587    0.0000 C   0  0  0  0  0  0  0  0  0  0  0  0
    0.8295   -0.6877    0.0000 C   0  0  0  0  0  0  0  0  0  0  0  0
    0.6305   -2.1744    0.0000 C   0  0  0  0  0  0  0  0  0  0  0  0
    1.0285    0.7990    0.0000 C   0  0  0  0  0  0  0  0  0  0  0  0
    2.4156    1.3701    0.0000 C   0  0  0  0  0  0  0  0  0  0  0  0
    2.6146    2.8568    0.0000 O   0  0  0  0  0  0  0  0  0  0  0  0
    3.6036    0.4544    0.0000 C   0  0  0  0  0  0  0  0  0  0  0  0
    4.9907    1.0254    0.0000 O   0  0  0  0  0  0  0  0  0  0  0  0
    3.4046   -1.0324    0.0000 C   0  0  0  0  0  0  0  0  0  0  0  0
    2.0176   -1.6034    0.0000 C   0  0  0  0  0  0  0  0  0  0  0  0
    1.8186   -3.0901    0.0000 C   0  0  0  0  0  0  0  0  0  0  0  0
   -0.1595    1.7147    0.0000 C   0  0  0  0  0  0  0  0  0  0  0  0
   -1.5466    1.1437    0.0000 C   0  0  0  0  0  0  0  0  0  0  0  0
   -2.8991    1.7924    0.0000 O   0  0  0  0  0  0  0  0  0  0  0  0
   -3.9340    0.7066    0.0000 C   0  0  0  0  0  0  0  0  0  0  0  0
   -5.4207    0.9056    0.0000 O   0  0  0  0  0  0  0  0  0  0  0  0
  1  2  1  0
  2  3  2  0
  3  4  1  0
  4  5  1  0
  5  6  1  6
  5  7  1  0
  7  8  2  0
  8  9  1  0
  8 10  1  0
 10 11  2  0
 10 12  1  0
 12 13  1  0
 13 14  1  6
  7 15  1  0
 15 16  2  0
 16 17  1  0
 17 18  1  0
 18 19  2  0
 18  2  1  0
 16  3  1  0
 13  5  1  0
M  END
>  <identifier>  (304) 
CNP0356734.1

>  <canonical_smiles>  (304) 
CC1=C2C[C@@]3(C)C(=C(O)C(=O)C[C@@H]3C)C=C2OC1=O

>  <standard_inchi>  (304) 
InChI=1S/C15H16O4/c1-7-4-11(16)13(17)10-5-12-9(6-15(7,10)3)8(2)14(18)19-12/h5,7,17H,4,6H2,1-3H3/t7-,15+/m0/s1

>  <standard_inchi_key>  (304) 
YFRGOWXYOVAUBU-NZFNHWASSA-N

>  <name>  (304) 
1-hydroxy-2-oxoeremo-phil-1(10) 7(11) 8(9)-trien-12(8)-olide

>  <iupac_name>  (304) 
(4~{a}~{R},5~{S})-8-hydroxy-3,4~{a},5-trimethyl-5,6-dihydro-4~{H}-benzo[f]benzofuran-2,7-dione

>  <annotation_level>  (304) 
5

>  <total_atom_count>  (304) 
35

>  <heavy_atom_count>  (304) 
19

>  <molecular_weight>  (304) 
260.29

>  <exact_molecular_weight>  (304) 
260.10486

>  <molecular_formula>  (304) 
C15H16O4

>  <alogp>  (304) 
2.57

>  <topological_polar_surface_area>  (304) 
63.60

>  <rotatable_bond_count>  (304) 
0

>  <hydrogen_bond_acceptors>  (304) 
4

>  <hydrogen_bond_donors>  (304) 
1

>  <hydrogen_bond_acceptors_lipinski>  (304) 
4

>  <hydrogen_bond_donors_lipinski>  (304) 
1

>  <lipinski_rule_of_five_violations>  (304) 
0

>  <aromatic_rings_count>  (304) 
0

>  <qed_drug_likeliness>  (304) 
0.68

>  <formal_charge>  (304) 
0

>  <fractioncsp3>  (304) 
0.47

>  <number_of_minimal_rings>  (304) 
3

>  <van_der_walls_volume>  (304) 
233.89

>  <contains_sugar>  (304) 
False

>  <contains_ring_sugars>  (304) 
False

>  <contains_linear_sugars>  (304) 
False

>  <murcko_framework>  (304) 
O1C2=CC3=CCCCC3CC2=CC1

>  <np_likeness>  (304) 
2.86

>  <chemical_class>  (304) 
Prenol lipids

>  <chemical_sub_class>  (304) 
Terpene lactones

>  <chemical_super_class>  (304) 
Lipids and lipid-like molecules

>  <direct_parent_classification>  (304) 
Terpene lactones

>  <np_classifier_pathway>  (304) 
Terpenoids

>  <np_classifier_superclass>  (304) 
Sesquiterpenoids

>  <np_classifier_class>  (304) 
Eremophilane sesquiterpenoids

>  <np_classifier_is_glycoside>  (304) 
False

>  <organisms>  (304) 
Malbranchea aurantiaca

>  <collections>  (304) 
BIOFACQUIM|Latin America dataset|TCMDB-Taiwan (Traditional Chinese Medicine database)|ZINC NP

>  <dois>  (304) 
10.1016/j.phytochem.2005.03.005

>  <synonyms>  (304) 
1-hydroxy-2-oxoeremo-phil-1(10) 7(11) 8(9)-trien-12(8)-olide

>  <cas>  (304) 
nan

$$$$

     RDKit          2D

 12 12  0  0  0  0  0  0  0  0999 V2000
    2.9103    0.3358    0.0000 C   0  0  0  0  0  0  0  0  0  0  0  0
    1.8551   -0.7303    0.0000 C   0  0  0  0  0  0  0  0  0  0  0  0
    2.2507   -2.1772    0.0000 C   0  0  0  0  0  0  0  0  0  0  0  0
    0.4042   -0.3495    0.0000 C   0  0  0  0  0  0  0  0  0  0  0  0
    0.1771   -1.8322    0.0000 O   0  0  0  0  0  0  0  0  0  0  0  0
    0.9346    1.0536    0.0000 O   0  0  0  0  0  0  0  0  0  0  0  0
   -0.2360    1.9916    0.0000 C   0  0  0  0  0  0  0  0  0  0  0  0
   -0.1651    3.4899    0.0000 O   0  0  0  0  0  0  0  0  0  0  0  0
   -1.4898    1.1682    0.0000 C   0  0  0  0  0  0  0  0  0  0  0  0
   -1.0941   -0.2787    0.0000 C   0  0  0  0  0  0  0  0  0  0  0  0
   -2.0321   -1.4492    0.0000 O   0  0  0  0  0  0  0  0  0  0  0  0
   -3.5148   -1.2221    0.0000 C   0  0  0  0  0  0  0  0  0  0  0  0
  1  2  2  0
  2  3  1  0
  2  4  1  0
  4  5  1  6
  4  6  1  0
  6  7  1  0
  7  8  2  0
  7  9  1  0
  9 10  2  0
 10 11  1  0
 11 12  1  0
 10  4  1  0
M  END
>  <identifier>  (305) 
CNP0162231.1

>  <canonical_smiles>  (305) 
C=C(C)[C@]1(O)OC(=O)C=C1OC

>  <standard_inchi>  (305) 
InChI=1S/C8H10O4/c1-5(2)8(10)6(11-3)4-7(9)12-8/h4,10H,1H2,2-3H3/t8-/m0/s1

>  <standard_inchi_key>  (305) 
YCOFRPYSZKIPBQ-QMMMGPOBSA-N

>  <name>  (305) 
nan

>  <iupac_name>  (305) 
(5~{S})-5-hydroxy-5-isopropenyl-4-methoxy-furan-2-one

>  <annotation_level>  (305) 
5

>  <total_atom_count>  (305) 
22

>  <heavy_atom_count>  (305) 
12

>  <molecular_weight>  (305) 
170.16

>  <exact_molecular_weight>  (305) 
170.05791

>  <molecular_formula>  (305) 
C8H10O4

>  <alogp>  (305) 
0.34

>  <topological_polar_surface_area>  (305) 
55.76

>  <rotatable_bond_count>  (305) 
2

>  <hydrogen_bond_acceptors>  (305) 
4

>  <hydrogen_bond_donors>  (305) 
1

>  <hydrogen_bond_acceptors_lipinski>  (305) 
4

>  <hydrogen_bond_donors_lipinski>  (305) 
1

>  <lipinski_rule_of_five_violations>  (305) 
0

>  <aromatic_rings_count>  (305) 
0

>  <qed_drug_likeliness>  (305) 
0.48

>  <formal_charge>  (305) 
0

>  <fractioncsp3>  (305) 
0.38

>  <number_of_minimal_rings>  (305) 
1

>  <van_der_walls_volume>  (305) 
152.87

>  <contains_sugar>  (305) 
False

>  <contains_ring_sugars>  (305) 
False

>  <contains_linear_sugars>  (305) 
False

>  <murcko_framework>  (305) 
O1CC=CC1

>  <np_likeness>  (305) 
2.92

>  <chemical_class>  (305) 
Dihydrofurans

>  <chemical_sub_class>  (305) 
Furanones

>  <chemical_super_class>  (305) 
Organoheterocyclic compounds

>  <direct_parent_classification>  (305) 
Butenolides

>  <np_classifier_pathway>  (305) 
Terpenoids

>  <np_classifier_superclass>  (305) 
Monoterpenoids

>  <np_classifier_class>  (305) 
nan

>  <np_classifier_is_glycoside>  (305) 
True

>  <organisms>  (305) 
Malbranchea aurantiaca

>  <collections>  (305) 
BIOFACQUIM|Super Natural II|ZINC NP

>  <dois>  (305) 
10.1016/j.phytochem.2005.03.005

>  <synonyms>  (305) 
Penicillic acid

>  <cas>  (305) 
nan

$$$$

     RDKit          2D

 21 22  0  0  0  0  0  0  0  0999 V2000
   -0.7395   -3.5613    0.0000 C   0  0  0  0  0  0  0  0  0  0  0  0
   -0.8457   -2.0650    0.0000 O   0  0  0  0  0  0  0  0  0  0  0  0
   -2.1946   -1.4089    0.0000 C   0  0  0  0  0  0  0  0  0  0  0  0
   -3.4373   -2.2489    0.0000 C   0  0  0  0  0  0  0  0  0  0  0  0
   -4.7861   -1.5928    0.0000 C   0  0  0  0  0  0  0  0  0  0  0  0
   -4.8923   -0.0965    0.0000 C   0  0  0  0  0  0  0  0  0  0  0  0
   -3.6496    0.7435    0.0000 C   0  0  0  0  0  0  0  0  0  0  0  0
   -3.7558    2.2398    0.0000 O   0  0  0  0  0  0  0  0  0  0  0  0
   -5.1046    2.8959    0.0000 C   0  0  0  0  0  0  0  0  0  0  0  0
   -2.3007    0.0874    0.0000 C   0  0  0  0  0  0  0  0  0  0  0  0
   -1.0580    0.9274    0.0000 C   0  0  0  0  0  0  0  0  0  0  0  0
   -1.1642    2.4237    0.0000 O   0  0  0  0  0  0  0  0  0  0  0  0
    0.2908    0.2713    0.0000 O   0  0  0  0  0  0  0  0  0  0  0  0
    1.5335    1.1113    0.0000 C   0  0  0  0  0  0  0  0  0  0  0  0
    2.8824    0.4552    0.0000 C   0  0  0  0  0  0  0  0  0  0  0  0
    2.9886   -1.0411    0.0000 C   0  0  0  0  0  0  0  0  0  0  0  0
    4.3374   -1.6972    0.0000 C   0  0  0  0  0  0  0  0  0  0  0  0
    5.5801   -0.8572    0.0000 C   0  0  0  0  0  0  0  0  0  0  0  0
    5.4739    0.6391    0.0000 C   0  0  0  0  0  0  0  0  0  0  0  0
    6.7166    1.4791    0.0000 O   0  0  0  0  0  0  0  0  0  0  0  0
    4.1251    1.2952    0.0000 C   0  0  0  0  0  0  0  0  0  0  0  0
  1  2  1  0
  2  3  1  0
  3  4  2  0
  4  5  1  0
  5  6  2  0
  6  7  1  0
  7  8  1  0
  8  9  1  0
  7 10  2  0
 10 11  1  0
 11 12  2  0
 11 13  1  0
 13 14  1  0
 14 15  1  0
 15 16  2  0
 16 17  1  0
 17 18  2  0
 18 19  1  0
 19 20  1  0
 19 21  2  0
 10  3  1  0
 21 15  1  0
M  END
>  <identifier>  (306) 
CNP0270511.0

>  <canonical_smiles>  (306) 
COC1=CC=CC(OC)=C1C(=O)OCC1=CC=CC(O)=C1

>  <standard_inchi>  (306) 
InChI=1S/C16H16O5/c1-19-13-7-4-8-14(20-2)15(13)16(18)21-10-11-5-3-6-12(17)9-11/h3-9,17H,10H2,1-2H3

>  <standard_inchi_key>  (306) 
PIWSYQREANNHKN-UHFFFAOYSA-N

>  <name>  (306) 
nan

>  <iupac_name>  (306) 
(3-hydroxyphenyl)methyl 2,6-dimethoxybenzoate

>  <annotation_level>  (306) 
5

>  <total_atom_count>  (306) 
37

>  <heavy_atom_count>  (306) 
21

>  <molecular_weight>  (306) 
288.3

>  <exact_molecular_weight>  (306) 
288.09977

>  <molecular_formula>  (306) 
C16H16O5

>  <alogp>  (306) 
2.77

>  <topological_polar_surface_area>  (306) 
64.99

>  <rotatable_bond_count>  (306) 
5

>  <hydrogen_bond_acceptors>  (306) 
5

>  <hydrogen_bond_donors>  (306) 
1

>  <hydrogen_bond_acceptors_lipinski>  (306) 
5

>  <hydrogen_bond_donors_lipinski>  (306) 
1

>  <lipinski_rule_of_five_violations>  (306) 
0

>  <aromatic_rings_count>  (306) 
2

>  <qed_drug_likeliness>  (306) 
0.86

>  <formal_charge>  (306) 
0

>  <fractioncsp3>  (306) 
0.19

>  <number_of_minimal_rings>  (306) 
2

>  <van_der_walls_volume>  (306) 
259.75

>  <contains_sugar>  (306) 
False

>  <contains_ring_sugars>  (306) 
False

>  <contains_linear_sugars>  (306) 
False

>  <murcko_framework>  (306) 
O(Cc1ccccc1)Cc2ccccc2

>  <np_likeness>  (306) 
0.06

>  <chemical_class>  (306) 
Benzene and substituted derivatives

>  <chemical_sub_class>  (306) 
Benzoic acids and derivatives

>  <chemical_super_class>  (306) 
Benzenoids

>  <direct_parent_classification>  (306) 
O-methoxybenzoic acids and derivatives

>  <np_classifier_pathway>  (306) 
nan

>  <np_classifier_superclass>  (306) 
nan

>  <np_classifier_class>  (306) 
nan

>  <np_classifier_is_glycoside>  (306) 
False

>  <organisms>  (306) 
Brickellia veronicifolia

>  <collections>  (306) 
BIOFACQUIM|Latin America dataset|Super Natural II|UNPD (Universal Natural Products Database)

>  <dois>  (306) 
10.1055/s-2005-864097

>  <synonyms>  (306) 
3'-hydroxybenzyl-2 6-dimethoxybenzoate

>  <cas>  (306) 
nan

$$$$

     RDKit          2D

 19 20  0  0  0  0  0  0  0  0999 V2000
   -1.8108   -3.0849    0.0000 C   0  0  0  0  0  0  0  0  0  0  0  0
   -1.6345   -1.5953    0.0000 O   0  0  0  0  0  0  0  0  0  0  0  0
   -2.8365   -0.6979    0.0000 C   0  0  0  0  0  0  0  0  0  0  0  0
   -4.2146   -1.2901    0.0000 C   0  0  0  0  0  0  0  0  0  0  0  0
   -5.4165   -0.3927    0.0000 C   0  0  0  0  0  0  0  0  0  0  0  0
   -5.2403    1.0969    0.0000 C   0  0  0  0  0  0  0  0  0  0  0  0
   -3.8622    1.6891    0.0000 C   0  0  0  0  0  0  0  0  0  0  0  0
   -2.6602    0.7917    0.0000 C   0  0  0  0  0  0  0  0  0  0  0  0
   -1.2821    1.3839    0.0000 C   0  0  0  0  0  0  0  0  0  0  0  0
   -0.0801    0.4865    0.0000 O   0  0  0  0  0  0  0  0  0  0  0  0
    1.2980    1.0787    0.0000 C   0  0  0  0  0  0  0  0  0  0  0  0
    1.4742    2.5683    0.0000 O   0  0  0  0  0  0  0  0  0  0  0  0
    2.4999    0.1812    0.0000 C   0  0  0  0  0  0  0  0  0  0  0  0
    2.3237   -1.3084    0.0000 C   0  0  0  0  0  0  0  0  0  0  0  0
    3.5256   -2.2058    0.0000 C   0  0  0  0  0  0  0  0  0  0  0  0
    4.9038   -1.6136    0.0000 C   0  0  0  0  0  0  0  0  0  0  0  0
    5.0800   -0.1240    0.0000 C   0  0  0  0  0  0  0  0  0  0  0  0
    3.8781    0.7734    0.0000 C   0  0  0  0  0  0  0  0  0  0  0  0
    4.0543    2.2630    0.0000 O   0  0  0  0  0  0  0  0  0  0  0  0
  1  2  1  0
  2  3  1  0
  3  4  2  0
  4  5  1  0
  5  6  2  0
  6  7  1  0
  7  8  2  0
  8  9  1  0
  9 10  1  0
 10 11  1  0
 11 12  2  0
 11 13  1  0
 13 14  2  0
 14 15  1  0
 15 16  2  0
 16 17  1  0
 17 18  2  0
 18 19  1  0
  8  3  1  0
 18 13  1  0
M  END
>  <identifier>  (307) 
CNP0276835.0

>  <canonical_smiles>  (307) 
COC1=CC=CC=C1COC(=O)C1=CC=CC=C1O

>  <standard_inchi>  (307) 
InChI=1S/C15H14O4/c1-18-14-9-5-2-6-11(14)10-19-15(17)12-7-3-4-8-13(12)16/h2-9,16H,10H2,1H3

>  <standard_inchi_key>  (307) 
YLHAQKVIXLQIFW-UHFFFAOYSA-N

>  <name>  (307) 
(2-methoxyphenyl)methyl 2-hydroxybenzoate

>  <iupac_name>  (307) 
(2-methoxyphenyl)methyl 2-hydroxybenzoate

>  <annotation_level>  (307) 
5

>  <total_atom_count>  (307) 
33

>  <heavy_atom_count>  (307) 
19

>  <molecular_weight>  (307) 
258.27

>  <exact_molecular_weight>  (307) 
258.08921

>  <molecular_formula>  (307) 
C15H14O4

>  <alogp>  (307) 
2.76

>  <topological_polar_surface_area>  (307) 
55.76

>  <rotatable_bond_count>  (307) 
4

>  <hydrogen_bond_acceptors>  (307) 
4

>  <hydrogen_bond_donors>  (307) 
1

>  <hydrogen_bond_acceptors_lipinski>  (307) 
4

>  <hydrogen_bond_donors_lipinski>  (307) 
1

>  <lipinski_rule_of_five_violations>  (307) 
0

>  <aromatic_rings_count>  (307) 
2

>  <qed_drug_likeliness>  (307) 
0.86

>  <formal_charge>  (307) 
0

>  <fractioncsp3>  (307) 
0.13

>  <number_of_minimal_rings>  (307) 
2

>  <van_der_walls_volume>  (307) 
233.43

>  <contains_sugar>  (307) 
False

>  <contains_ring_sugars>  (307) 
False

>  <contains_linear_sugars>  (307) 
False

>  <murcko_framework>  (307) 
O(Cc1ccccc1)Cc2ccccc2

>  <np_likeness>  (307) 
-0.19

>  <chemical_class>  (307) 
Benzene and substituted derivatives

>  <chemical_sub_class>  (307) 
Benzoic acids and derivatives

>  <chemical_super_class>  (307) 
Benzenoids

>  <direct_parent_classification>  (307) 
o-Hydroxybenzoic acid esters

>  <np_classifier_pathway>  (307) 
Shikimates and Phenylpropanoids

>  <np_classifier_superclass>  (307) 
Phenolic acids (C6-C1)

>  <np_classifier_class>  (307) 
Simple phenolic acids

>  <np_classifier_is_glycoside>  (307) 
False

>  <organisms>  (307) 
Brickellia veronicaefolia|Brickellia veronicifolia

>  <collections>  (307) 
BIOFACQUIM|Latin America dataset|NPASS|Super Natural II|UNPD (Universal Natural Products Database)

>  <dois>  (307) 
10.1021/np060180b|10.1055/s-2005-864097

>  <synonyms>  (307) 
CHEMBL495645|2-hydroxybenzyl 2'-methoxybenzoate|2-methoxybenzyl-2-hydroxy benzoate

>  <cas>  (307) 
nan

$$$$

     RDKit          2D

 20 21  0  0  0  0  0  0  0  0999 V2000
   -0.2073   -3.5045    0.0000 C   0  0  0  0  0  0  0  0  0  0  0  0
   -0.3973   -2.0166    0.0000 O   0  0  0  0  0  0  0  0  0  0  0  0
   -1.7808   -1.4372    0.0000 C   0  0  0  0  0  0  0  0  0  0  0  0
   -2.9744   -2.3457    0.0000 C   0  0  0  0  0  0  0  0  0  0  0  0
   -4.3580   -1.7663    0.0000 C   0  0  0  0  0  0  0  0  0  0  0  0
   -4.5480   -0.2784    0.0000 C   0  0  0  0  0  0  0  0  0  0  0  0
   -3.3544    0.6301    0.0000 C   0  0  0  0  0  0  0  0  0  0  0  0
   -3.5445    2.1181    0.0000 O   0  0  0  0  0  0  0  0  0  0  0  0
   -4.9280    2.6975    0.0000 C   0  0  0  0  0  0  0  0  0  0  0  0
   -1.9709    0.0507    0.0000 C   0  0  0  0  0  0  0  0  0  0  0  0
   -0.7773    0.9593    0.0000 C   0  0  0  0  0  0  0  0  0  0  0  0
   -0.9673    2.4472    0.0000 O   0  0  0  0  0  0  0  0  0  0  0  0
    0.6063    0.3799    0.0000 O   0  0  0  0  0  0  0  0  0  0  0  0
    1.7998    1.2884    0.0000 C   0  0  0  0  0  0  0  0  0  0  0  0
    3.1834    0.7090    0.0000 C   0  0  0  0  0  0  0  0  0  0  0  0
    3.3734   -0.7789    0.0000 C   0  0  0  0  0  0  0  0  0  0  0  0
    4.7570   -1.3583    0.0000 C   0  0  0  0  0  0  0  0  0  0  0  0
    5.9506   -0.4498    0.0000 C   0  0  0  0  0  0  0  0  0  0  0  0
    5.7606    1.0381    0.0000 C   0  0  0  0  0  0  0  0  0  0  0  0
    4.3770    1.6175    0.0000 C   0  0  0  0  0  0  0  0  0  0  0  0
  1  2  1  0
  2  3  1  0
  3  4  2  0
  4  5  1  0
  5  6  2  0
  6  7  1  0
  7  8  1  0
  8  9  1  0
  7 10  2  0
 10 11  1  0
 11 12  2  0
 11 13  1  0
 13 14  1  0
 14 15  1  0
 15 16  2  0
 16 17  1  0
 17 18  2  0
 18 19  1  0
 19 20  2  0
 10  3  1  0
 20 15  1  0
M  END
>  <identifier>  (308) 
CNP0284375.0

>  <canonical_smiles>  (308) 
COC1=CC=CC(OC)=C1C(=O)OCC1=CC=CC=C1

>  <standard_inchi>  (308) 
InChI=1S/C16H16O4/c1-18-13-9-6-10-14(19-2)15(13)16(17)20-11-12-7-4-3-5-8-12/h3-10H,11H2,1-2H3

>  <standard_inchi_key>  (308) 
PKIYLOACOOWBCU-UHFFFAOYSA-N

>  <name>  (308) 
Benzyl 2,6-dimethoxybenzoate

>  <iupac_name>  (308) 
benzyl 2,6-dimethoxybenzoate

>  <annotation_level>  (308) 
5

>  <total_atom_count>  (308) 
36

>  <heavy_atom_count>  (308) 
20

>  <molecular_weight>  (308) 
272.3

>  <exact_molecular_weight>  (308) 
272.10486

>  <molecular_formula>  (308) 
C16H16O4

>  <alogp>  (308) 
3.06

>  <topological_polar_surface_area>  (308) 
44.76

>  <rotatable_bond_count>  (308) 
5

>  <hydrogen_bond_acceptors>  (308) 
4

>  <hydrogen_bond_donors>  (308) 
0

>  <hydrogen_bond_acceptors_lipinski>  (308) 
4

>  <hydrogen_bond_donors_lipinski>  (308) 
0

>  <lipinski_rule_of_five_violations>  (308) 
0

>  <aromatic_rings_count>  (308) 
2

>  <qed_drug_likeliness>  (308) 
0.78

>  <formal_charge>  (308) 
0

>  <fractioncsp3>  (308) 
0.19

>  <number_of_minimal_rings>  (308) 
2

>  <van_der_walls_volume>  (308) 
249.77

>  <contains_sugar>  (308) 
False

>  <contains_ring_sugars>  (308) 
False

>  <contains_linear_sugars>  (308) 
False

>  <murcko_framework>  (308) 
O(Cc1ccccc1)Cc2ccccc2

>  <np_likeness>  (308) 
-0.26

>  <chemical_class>  (308) 
Benzene and substituted derivatives

>  <chemical_sub_class>  (308) 
Benzoic acids and derivatives

>  <chemical_super_class>  (308) 
Benzenoids

>  <direct_parent_classification>  (308) 
O-methoxybenzoic acids and derivatives

>  <np_classifier_pathway>  (308) 
Shikimates and Phenylpropanoids

>  <np_classifier_superclass>  (308) 
Phenolic acids (C6-C1)

>  <np_classifier_class>  (308) 
Simple phenolic acids

>  <np_classifier_is_glycoside>  (308) 
False

>  <organisms>  (308) 
Aeschynanthus parvifolius|Agelas gracilis|Agelas longissima|Alpinia pulcherrima|Aniba ferrea|Arnica acaulis|Betula papyrifera|Bignonia unguiscati|Blainvillea latifolia|Boronia alata|Brickellia veronicaefolia|Brickellia veronicifolia|Brintonia discoidea|Bufo bankorensis|Caesalpinia pulcherrima|Chelonanthus alatus|Chromodoris cavae|Cinnamomum philippinense|Cladosiphon okamuranus|Clostridium perfringens|Coronilla hyrcana|Cyathus intermedius|Cyperus capitatus|Cyttaria harioti|Dehaasia longipedicellata|Delphinium tricorne|Echinocardium cordatum|Ephedra altissima|Eria siamensis|Erica cinerea|Escherichia coli|Forsythia europaea|Goodyera discolor|Haemanthus albiflos|Helleborus viridis|Hintonia latiflora|Hordeum bulbosum|Iris sibirica|Isolona pilosa|Jatropha gossypiifolia|Keyserlingia koreensis|Kumara disticha|Lactarius torminosus|Lecanora sulphurata|Litsea nitida|Lobelia langeana|Magnolia henryi|Malus trilobata|Maytenus emarginata|Micromelum falcatum|Mocis latipes|Mycale tenuis|Mycosphaerella nawae|Peltophorum dubium|Penicilliopsis clavariiformis|Phoma asparagi|Pityrodia jamesii|Prunus pseudocerasus|Pycnothymus rigidus|Rhizophagus intraradices|Salvia breviflora|Salvia miniata|Sibiraea angustata|Solidago decurrens|Solidago virgaurea l. var. leiocarpa (benth.) a. gray|Solidago virgaurea var. leiocarpa|Stachys tomentosa|Streptomyces aurantiogriseus|Streptomyces sakaiensis|Tamarix dioica|Thelepus setosus|Tripterygium wilfordii|Uncaria homomalla|Valeriana officinalis|Vernonia aurea|Xanthium canadense

>  <collections>  (308) 
Australian natural products|BIOFACQUIM|CMAUP (cCollective molecular activities of useful plants)|Latin America dataset|NPASS|NuBBEDB|Phyto4Health|Super Natural II|TCMDB-Taiwan (Traditional Chinese Medicine database)|TCMID (Traditional Chinese Medicine Integrated Database)|UNPD (Universal Natural Products Database)|VietHerb|ZINC NP

>  <dois>  (308) 
10.1016/0031-9422(80)83081-0|10.1021/np060180b|10.1055/s-2005-864097

>  <synonyms>  (308) 
34328-54-6|Benzyl 2|6-methoxybenzoate|NSC644650|CHEMBL491794|DTXSID00327305|AKOS002351529|FS-7990|NCI60_015130|benzyl 2 6-dimethoxybenzoate

>  <cas>  (308) 
34328-54-6

$$$$

     RDKit          2D

 12 13  0  0  0  0  0  0  0  0999 V2000
   -3.4190    1.3307    0.0000 C   0  0  0  0  0  0  0  0  0  0  0  0
   -2.6875    0.0212    0.0000 O   0  0  0  0  0  0  0  0  0  0  0  0
   -1.1876    0.0000    0.0000 C   0  0  0  0  0  0  0  0  0  0  0  0
   -0.4193    1.2883    0.0000 C   0  0  0  0  0  0  0  0  0  0  0  0
    1.0805    1.2671    0.0000 C   0  0  0  0  0  0  0  0  0  0  0  0
    1.8488    2.5555    0.0000 O   0  0  0  0  0  0  0  0  0  0  0  0
    1.8121   -0.0424    0.0000 C   0  0  0  0  0  0  0  0  0  0  0  0
    2.5436   -1.3519    0.0000 O   0  0  0  0  0  0  0  0  0  0  0  0
    1.0438   -1.3307    0.0000 C   0  0  0  0  0  0  0  0  0  0  0  0
    1.0650    0.1692    0.0000 C   0  0  0  0  0  0  0  0  0  0  0  0
   -0.4561   -1.3095    0.0000 C   0  0  0  0  0  0  0  0  0  0  0  0
   -1.2243   -2.5978    0.0000 O   0  0  0  0  0  0  0  0  0  0  0  0
  1  2  1  0
  2  3  1  0
  3  4  2  0
  4  5  1  0
  5  6  2  0
  5  7  1  0
  7  8  1  1
  8  9  1  0
  9 10  1  6
  9 11  1  0
 11 12  1  1
 11  3  1  0
  9  7  1  0
M  END
>  <identifier>  (309) 
CNP0177366.1

>  <canonical_smiles>  (309) 
COC1=CC(=O)[C@H]2O[C@@]2(C)[C@H]1O

>  <standard_inchi>  (309) 
InChI=1S/C8H10O4/c1-8-6(10)5(11-2)3-4(9)7(8)12-8/h3,6-7,10H,1-2H3/t6-,7+,8-/m0/s1

>  <standard_inchi_key>  (309) 
AIVUQNKTJDAYQX-RNJXMRFFSA-N

>  <name>  (309) 
(1S,5S,6S)-5-hydroxy-4-methoxy-6-methyl-7-oxabicyclo[4.1.0]hept-3-en-2-one

>  <iupac_name>  (309) 
(1~{S},5~{S},6~{S})-5-hydroxy-4-methoxy-6-methyl-7-oxabicyclo[4.1.0]hept-3-en-2-one

>  <annotation_level>  (309) 
5

>  <total_atom_count>  (309) 
22

>  <heavy_atom_count>  (309) 
12

>  <molecular_weight>  (309) 
170.16

>  <exact_molecular_weight>  (309) 
170.05791

>  <molecular_formula>  (309) 
C8H10O4

>  <alogp>  (309) 
-0.38

>  <topological_polar_surface_area>  (309) 
59.06

>  <rotatable_bond_count>  (309) 
1

>  <hydrogen_bond_acceptors>  (309) 
4

>  <hydrogen_bond_donors>  (309) 
1

>  <hydrogen_bond_acceptors_lipinski>  (309) 
4

>  <hydrogen_bond_donors_lipinski>  (309) 
1

>  <lipinski_rule_of_five_violations>  (309) 
0

>  <aromatic_rings_count>  (309) 
0

>  <qed_drug_likeliness>  (309) 
0.54

>  <formal_charge>  (309) 
0

>  <fractioncsp3>  (309) 
0.63

>  <number_of_minimal_rings>  (309) 
2

>  <van_der_walls_volume>  (309) 
150.86

>  <contains_sugar>  (309) 
False

>  <contains_ring_sugars>  (309) 
False

>  <contains_linear_sugars>  (309) 
False

>  <murcko_framework>  (309) 
O1C2CC=CCC12

>  <np_likeness>  (309) 
2.93

>  <chemical_class>  (309) 
Organooxygen compounds

>  <chemical_sub_class>  (309) 
Carbonyl compounds

>  <chemical_super_class>  (309) 
Organic oxygen compounds

>  <direct_parent_classification>  (309) 
Cyclohexenones

>  <np_classifier_pathway>  (309) 
Polyketides

>  <np_classifier_superclass>  (309) 
Meroterpenoids

>  <np_classifier_class>  (309) 
nan

>  <np_classifier_is_glycoside>  (309) 
False

>  <organisms>  (309) 
Unknown-fungus sp. (strain YUA-026)|Xylaria feejeensis

>  <collections>  (309) 
BIOFACQUIM|EMNPD|Latin America dataset|NPAtlas|Super Natural II

>  <dois>  (309) 
10.1021/np500897y|10.1271/bbb.69.287

>  <synonyms>  (309) 
(4s|5s|6s)-5|6-epoxy-4-hydroxy-3-methoxy-5-methyl-cyclohex-2-en-1-one|CHEBI:215614|(4S|5S|6S)-4-Hydroxy-3-methoxy-5-methyl-5|6- epoxycyclohex-2-en-1-one|7-Oxabicyclo4.1.0hept-3-en-2-one| 5-hydroxy-4-methoxy-6-methyl-| (1S|5S|6S)-

>  <cas>  (309) 
nan

$$$$

     RDKit          2D

 21 22  0  0  0  0  0  0  0  0999 V2000
   -6.1952   -2.4332    0.0000 C   0  0  0  0  0  0  0  0  0  0  0  0
   -4.7430   -2.0576    0.0000 O   0  0  0  0  0  0  0  0  0  0  0  0
   -4.3422   -0.6121    0.0000 C   0  0  0  0  0  0  0  0  0  0  0  0
   -5.3937    0.4577    0.0000 C   0  0  0  0  0  0  0  0  0  0  0  0
   -4.9929    1.9032    0.0000 C   0  0  0  0  0  0  0  0  0  0  0  0
   -3.5407    2.2789    0.0000 C   0  0  0  0  0  0  0  0  0  0  0  0
   -2.4893    1.2090    0.0000 C   0  0  0  0  0  0  0  0  0  0  0  0
   -1.0371    1.5847    0.0000 C   0  0  0  0  0  0  0  0  0  0  0  0
    0.0144    0.5149    0.0000 O   0  0  0  0  0  0  0  0  0  0  0  0
    1.4666    0.8905    0.0000 C   0  0  0  0  0  0  0  0  0  0  0  0
    1.8673    2.3360    0.0000 O   0  0  0  0  0  0  0  0  0  0  0  0
    2.5180   -0.1793    0.0000 C   0  0  0  0  0  0  0  0  0  0  0  0
    2.1172   -1.6247    0.0000 C   0  0  0  0  0  0  0  0  0  0  0  0
    0.6650   -2.0004    0.0000 O   0  0  0  0  0  0  0  0  0  0  0  0
    3.1687   -2.6946    0.0000 C   0  0  0  0  0  0  0  0  0  0  0  0
    4.6208   -2.3189    0.0000 C   0  0  0  0  0  0  0  0  0  0  0  0
    5.0216   -0.8734    0.0000 C   0  0  0  0  0  0  0  0  0  0  0  0
    3.9702    0.1964    0.0000 C   0  0  0  0  0  0  0  0  0  0  0  0
    4.3710    1.6418    0.0000 O   0  0  0  0  0  0  0  0  0  0  0  0
    5.8232    2.0175    0.0000 C   0  0  0  0  0  0  0  0  0  0  0  0
   -2.8900   -0.2364    0.0000 C   0  0  0  0  0  0  0  0  0  0  0  0
  1  2  1  0
  2  3  1  0
  3  4  2  0
  4  5  1  0
  5  6  2  0
  6  7  1  0
  7  8  1  0
  8  9  1  0
  9 10  1  0
 10 11  2  0
 10 12  1  0
 12 13  2  0
 13 14  1  0
 13 15  1  0
 15 16  2  0
 16 17  1  0
 17 18  2  0
 18 19  1  0
 19 20  1  0
  7 21  2  0
 21  3  1  0
 18 12  1  0
M  END
>  <identifier>  (310) 
CNP0137494.0

>  <canonical_smiles>  (310) 
COC1=CC=CC(COC(=O)C2=C(O)C=CC=C2OC)=C1

>  <standard_inchi>  (310) 
InChI=1S/C16H16O5/c1-19-12-6-3-5-11(9-12)10-21-16(18)15-13(17)7-4-8-14(15)20-2/h3-9,17H,10H2,1-2H3

>  <standard_inchi_key>  (310) 
DGYWXQIMCBTTQH-UHFFFAOYSA-N

>  <name>  (310) 
nan

>  <iupac_name>  (310) 
(3-methoxyphenyl)methyl 2-hydroxy-6-methoxy-benzoate

>  <annotation_level>  (310) 
5

>  <total_atom_count>  (310) 
37

>  <heavy_atom_count>  (310) 
21

>  <molecular_weight>  (310) 
288.3

>  <exact_molecular_weight>  (310) 
288.09977

>  <molecular_formula>  (310) 
C16H16O5

>  <alogp>  (310) 
2.77

>  <topological_polar_surface_area>  (310) 
64.99

>  <rotatable_bond_count>  (310) 
5

>  <hydrogen_bond_acceptors>  (310) 
5

>  <hydrogen_bond_donors>  (310) 
1

>  <hydrogen_bond_acceptors_lipinski>  (310) 
5

>  <hydrogen_bond_donors_lipinski>  (310) 
1

>  <lipinski_rule_of_five_violations>  (310) 
0

>  <aromatic_rings_count>  (310) 
2

>  <qed_drug_likeliness>  (310) 
0.86

>  <formal_charge>  (310) 
0

>  <fractioncsp3>  (310) 
0.19

>  <number_of_minimal_rings>  (310) 
2

>  <van_der_walls_volume>  (310) 
257.78

>  <contains_sugar>  (310) 
False

>  <contains_ring_sugars>  (310) 
False

>  <contains_linear_sugars>  (310) 
False

>  <murcko_framework>  (310) 
O(Cc1ccccc1)Cc2ccccc2

>  <np_likeness>  (310) 
-0.08

>  <chemical_class>  (310) 
Benzene and substituted derivatives

>  <chemical_sub_class>  (310) 
Benzoic acids and derivatives

>  <chemical_super_class>  (310) 
Benzenoids

>  <direct_parent_classification>  (310) 
O-methoxybenzoic acids and derivatives

>  <np_classifier_pathway>  (310) 
nan

>  <np_classifier_superclass>  (310) 
nan

>  <np_classifier_class>  (310) 
nan

>  <np_classifier_is_glycoside>  (310) 
False

>  <organisms>  (310) 
Brickellia veronicifolia

>  <collections>  (310) 
BIOFACQUIM|Latin America dataset|Super Natural II|UNPD (Universal Natural Products Database)

>  <dois>  (310) 
10.1055/s-2005-864097

>  <synonyms>  (310) 
3'-methoxybenzyl-2-hydroxy-6-methoxybenzoate

>  <cas>  (310) 
nan

$$$$

     RDKit          2D

 19 20  0  0  0  0  0  0  0  0999 V2000
   -0.7419   -3.3127    0.0000 C   0  0  0  0  0  0  0  0  0  0  0  0
   -0.8088   -1.8142    0.0000 O   0  0  0  0  0  0  0  0  0  0  0  0
   -2.1400   -1.1228    0.0000 C   0  0  0  0  0  0  0  0  0  0  0  0
   -3.4043   -1.9299    0.0000 C   0  0  0  0  0  0  0  0  0  0  0  0
   -4.7354   -1.2385    0.0000 C   0  0  0  0  0  0  0  0  0  0  0  0
   -4.8023    0.2600    0.0000 C   0  0  0  0  0  0  0  0  0  0  0  0
   -3.5380    1.0671    0.0000 C   0  0  0  0  0  0  0  0  0  0  0  0
   -3.6048    2.5656    0.0000 O   0  0  0  0  0  0  0  0  0  0  0  0
   -2.2068    0.3757    0.0000 C   0  0  0  0  0  0  0  0  0  0  0  0
   -0.9425    1.1829    0.0000 C   0  0  0  0  0  0  0  0  0  0  0  0
   -1.0093    2.6814    0.0000 O   0  0  0  0  0  0  0  0  0  0  0  0
    0.3887    0.4915    0.0000 O   0  0  0  0  0  0  0  0  0  0  0  0
    1.6530    1.2986    0.0000 C   0  0  0  0  0  0  0  0  0  0  0  0
    2.9842    0.6073    0.0000 C   0  0  0  0  0  0  0  0  0  0  0  0
    3.0510   -0.8913    0.0000 C   0  0  0  0  0  0  0  0  0  0  0  0
    4.3822   -1.5826    0.0000 C   0  0  0  0  0  0  0  0  0  0  0  0
    5.6465   -0.7755    0.0000 C   0  0  0  0  0  0  0  0  0  0  0  0
    5.5797    0.7230    0.0000 C   0  0  0  0  0  0  0  0  0  0  0  0
    4.2485    1.4144    0.0000 C   0  0  0  0  0  0  0  0  0  0  0  0
  1  2  1  0
  2  3  1  0
  3  4  2  0
  4  5  1  0
  5  6  2  0
  6  7  1  0
  7  8  1  0
  7  9  2  0
  9 10  1  0
 10 11  2  0
 10 12  1  0
 12 13  1  0
 13 14  1  0
 14 15  2  0
 15 16  1  0
 16 17  2  0
 17 18  1  0
 18 19  2  0
  9  3  1  0
 19 14  1  0
M  END
>  <identifier>  (311) 
CNP0164478.0

>  <canonical_smiles>  (311) 
COC1=CC=CC(O)=C1C(=O)OCC1=CC=CC=C1

>  <standard_inchi>  (311) 
InChI=1S/C15H14O4/c1-18-13-9-5-8-12(16)14(13)15(17)19-10-11-6-3-2-4-7-11/h2-9,16H,10H2,1H3

>  <standard_inchi_key>  (311) 
CGNJMCLXIMWKDY-UHFFFAOYSA-N

>  <name>  (311) 
Benzyl 2-hydroxy-6-methoxybenzoate

>  <iupac_name>  (311) 
benzyl 2-hydroxy-6-methoxy-benzoate

>  <annotation_level>  (311) 
5

>  <total_atom_count>  (311) 
33

>  <heavy_atom_count>  (311) 
19

>  <molecular_weight>  (311) 
258.27

>  <exact_molecular_weight>  (311) 
258.08921

>  <molecular_formula>  (311) 
C15H14O4

>  <alogp>  (311) 
2.76

>  <topological_polar_surface_area>  (311) 
55.76

>  <rotatable_bond_count>  (311) 
4

>  <hydrogen_bond_acceptors>  (311) 
4

>  <hydrogen_bond_donors>  (311) 
1

>  <hydrogen_bond_acceptors_lipinski>  (311) 
4

>  <hydrogen_bond_donors_lipinski>  (311) 
1

>  <lipinski_rule_of_five_violations>  (311) 
0

>  <aromatic_rings_count>  (311) 
2

>  <qed_drug_likeliness>  (311) 
0.86

>  <formal_charge>  (311) 
0

>  <fractioncsp3>  (311) 
0.13

>  <number_of_minimal_rings>  (311) 
2

>  <van_der_walls_volume>  (311) 
231.51

>  <contains_sugar>  (311) 
False

>  <contains_ring_sugars>  (311) 
False

>  <contains_linear_sugars>  (311) 
False

>  <murcko_framework>  (311) 
O(Cc1ccccc1)Cc2ccccc2

>  <np_likeness>  (311) 
0.05

>  <chemical_class>  (311) 
Benzene and substituted derivatives

>  <chemical_sub_class>  (311) 
Benzoic acids and derivatives

>  <chemical_super_class>  (311) 
Benzenoids

>  <direct_parent_classification>  (311) 
O-methoxybenzoic acids and derivatives

>  <np_classifier_pathway>  (311) 
Shikimates and Phenylpropanoids

>  <np_classifier_superclass>  (311) 
Phenolic acids (C6-C1)

>  <np_classifier_class>  (311) 
Simple phenolic acids

>  <np_classifier_is_glycoside>  (311) 
False

>  <organisms>  (311) 
Arnica acaulis|Brickellia veronicifolia|Chelonanthus alatus|Dehaasia longipedicellata|Escherichia coli|Forsythia europaea|Hintonia latiflora|Lindera fruticosa|Pityrodia jamesii|Salvia breviflora|Securidaca longepedunculata|Solidago decurrens|Solidago virgaurea l. var. leiocarpa (benth.) a. gray|Solidago virgaurea var. leiocarpa|Stachys tomentosa|Streptomyces aurantiogriseus

>  <collections>  (311) 
ANPDB|BIOFACQUIM|CMAUP (cCollective molecular activities of useful plants)|KNApSaCK|Latin America dataset|NANPDB (Natural Products from Northern African Sources)|NPASS|Super Natural II|TCMDB-Taiwan (Traditional Chinese Medicine database)|TCMID (Traditional Chinese Medicine Integrated Database)|UNPD (Universal Natural Products Database)|ZINC NP

>  <dois>  (311) 
10.1016/j.bmc.2013.10.027|10.1021/np060048b|10.1055/s-2005-864097

>  <synonyms>  (311) 
24474-71-3|CHEMBL451295|DTXSID20424007|CGNJMCLXIMWKDY-UHFFFAOYSA-N|AKOS040757784|CS-0256252|Benzyl 2-hydroxy-6-methoxybenzoate

>  <cas>  (311) 
24474-71-3

$$$$

     RDKit          2D

 22 23  0  0  0  0  0  0  0  0999 V2000
   -4.2804   -3.7542    0.0000 C   0  0  0  0  0  0  0  0  0  0  0  0
   -2.9643   -3.0345    0.0000 O   0  0  0  0  0  0  0  0  0  0  0  0
   -2.9296   -1.5349    0.0000 C   0  0  0  0  0  0  0  0  0  0  0  0
   -4.2109   -0.7550    0.0000 C   0  0  0  0  0  0  0  0  0  0  0  0
   -4.1762    0.7446    0.0000 C   0  0  0  0  0  0  0  0  0  0  0  0
   -2.8602    1.4643    0.0000 C   0  0  0  0  0  0  0  0  0  0  0  0
   -2.8255    2.9639    0.0000 O   0  0  0  0  0  0  0  0  0  0  0  0
   -4.1068    3.7437    0.0000 C   0  0  0  0  0  0  0  0  0  0  0  0
   -1.5789    0.6844    0.0000 C   0  0  0  0  0  0  0  0  0  0  0  0
   -0.2628    1.4042    0.0000 C   0  0  0  0  0  0  0  0  0  0  0  0
   -0.2281    2.9038    0.0000 O   0  0  0  0  0  0  0  0  0  0  0  0
    1.0185    0.6243    0.0000 O   0  0  0  0  0  0  0  0  0  0  0  0
    2.3346    1.3441    0.0000 C   0  0  0  0  0  0  0  0  0  0  0  0
    3.6159    0.5642    0.0000 C   0  0  0  0  0  0  0  0  0  0  0  0
    3.5812   -0.9354    0.0000 C   0  0  0  0  0  0  0  0  0  0  0  0
    4.8625   -1.7152    0.0000 C   0  0  0  0  0  0  0  0  0  0  0  0
    6.1786   -0.9955    0.0000 C   0  0  0  0  0  0  0  0  0  0  0  0
    6.2133    0.5041    0.0000 C   0  0  0  0  0  0  0  0  0  0  0  0
    4.9319    1.2840    0.0000 C   0  0  0  0  0  0  0  0  0  0  0  0
   -1.6136   -0.8152    0.0000 C   0  0  0  0  0  0  0  0  0  0  0  0
   -0.3322   -1.5950    0.0000 O   0  0  0  0  0  0  0  0  0  0  0  0
   -0.3669   -3.0946    0.0000 C   0  0  0  0  0  0  0  0  0  0  0  0
  1  2  1  0
  2  3  1  0
  3  4  2  0
  4  5  1  0
  5  6  2  0
  6  7  1  0
  7  8  1  0
  6  9  1  0
  9 10  1  0
 10 11  2  0
 10 12  1  0
 12 13  1  0
 13 14  1  0
 14 15  2  0
 15 16  1  0
 16 17  2  0
 17 18  1  0
 18 19  2  0
  9 20  2  0
 20 21  1  0
 21 22  1  0
 20  3  1  0
 19 14  1  0
M  END
>  <identifier>  (312) 
CNP0278661.0

>  <canonical_smiles>  (312) 
COC1=CC=C(OC)C(C(=O)OCC2=CC=CC=C2)=C1OC

>  <standard_inchi>  (312) 
InChI=1S/C17H18O5/c1-19-13-9-10-14(20-2)16(21-3)15(13)17(18)22-11-12-7-5-4-6-8-12/h4-10H,11H2,1-3H3

>  <standard_inchi_key>  (312) 
WKTUEASUPBAIPX-UHFFFAOYSA-N

>  <name>  (312) 
Benzyl 2,3,6-trimethoxybenzoate

>  <iupac_name>  (312) 
benzyl 2,3,6-trimethoxybenzoate

>  <annotation_level>  (312) 
5

>  <total_atom_count>  (312) 
40

>  <heavy_atom_count>  (312) 
22

>  <molecular_weight>  (312) 
302.33

>  <exact_molecular_weight>  (312) 
302.11542

>  <molecular_formula>  (312) 
C17H18O5

>  <alogp>  (312) 
3.07

>  <topological_polar_surface_area>  (312) 
53.99

>  <rotatable_bond_count>  (312) 
6

>  <hydrogen_bond_acceptors>  (312) 
5

>  <hydrogen_bond_donors>  (312) 
0

>  <hydrogen_bond_acceptors_lipinski>  (312) 
5

>  <hydrogen_bond_donors_lipinski>  (312) 
0

>  <lipinski_rule_of_five_violations>  (312) 
0

>  <aromatic_rings_count>  (312) 
2

>  <qed_drug_likeliness>  (312) 
0.77

>  <formal_charge>  (312) 
0

>  <fractioncsp3>  (312) 
0.24

>  <number_of_minimal_rings>  (312) 
2

>  <van_der_walls_volume>  (312) 
276.74

>  <contains_sugar>  (312) 
False

>  <contains_ring_sugars>  (312) 
False

>  <contains_linear_sugars>  (312) 
False

>  <murcko_framework>  (312) 
O(Cc1ccccc1)Cc2ccccc2

>  <np_likeness>  (312) 
0.00

>  <chemical_class>  (312) 
Benzene and substituted derivatives

>  <chemical_sub_class>  (312) 
Benzoic acids and derivatives

>  <chemical_super_class>  (312) 
Benzenoids

>  <direct_parent_classification>  (312) 
O-methoxybenzoic acids and derivatives

>  <np_classifier_pathway>  (312) 
nan

>  <np_classifier_superclass>  (312) 
nan

>  <np_classifier_class>  (312) 
nan

>  <np_classifier_is_glycoside>  (312) 
False

>  <organisms>  (312) 
Brickellia veronicifolia

>  <collections>  (312) 
BIOFACQUIM|Latin America dataset|UNPD (Universal Natural Products Database)

>  <dois>  (312) 
10.1055/s-2005-864097

>  <synonyms>  (312) 
62458-49-5|Compound NP-024633|DTXSID20808383|AKOS030587646|Benzyl 2 3 6-trimethoxybenzoate

>  <cas>  (312) 
62458-49-5

$$$$

     RDKit          2D

 21 22  0  0  0  0  0  0  0  0999 V2000
   -4.7763   -3.1636    0.0000 C   0  0  0  0  0  0  0  0  0  0  0  0
   -3.4014   -2.5638    0.0000 O   0  0  0  0  0  0  0  0  0  0  0  0
   -3.2335   -1.0732    0.0000 C   0  0  0  0  0  0  0  0  0  0  0  0
   -4.4403   -0.1825    0.0000 C   0  0  0  0  0  0  0  0  0  0  0  0
   -4.2724    1.3081    0.0000 C   0  0  0  0  0  0  0  0  0  0  0  0
   -2.8975    1.9079    0.0000 C   0  0  0  0  0  0  0  0  0  0  0  0
   -2.7295    3.3985    0.0000 O   0  0  0  0  0  0  0  0  0  0  0  0
   -1.6906    1.0172    0.0000 C   0  0  0  0  0  0  0  0  0  0  0  0
   -0.3158    1.6170    0.0000 C   0  0  0  0  0  0  0  0  0  0  0  0
   -0.1478    3.1075    0.0000 O   0  0  0  0  0  0  0  0  0  0  0  0
    0.8911    0.7262    0.0000 O   0  0  0  0  0  0  0  0  0  0  0  0
    2.2660    1.3260    0.0000 C   0  0  0  0  0  0  0  0  0  0  0  0
    3.4728    0.4353    0.0000 C   0  0  0  0  0  0  0  0  0  0  0  0
    3.3049   -1.0553    0.0000 C   0  0  0  0  0  0  0  0  0  0  0  0
    4.5117   -1.9461    0.0000 C   0  0  0  0  0  0  0  0  0  0  0  0
    5.8866   -1.3462    0.0000 C   0  0  0  0  0  0  0  0  0  0  0  0
    6.0546    0.1443    0.0000 C   0  0  0  0  0  0  0  0  0  0  0  0
    4.8477    1.0351    0.0000 C   0  0  0  0  0  0  0  0  0  0  0  0
   -1.8586   -0.4734    0.0000 C   0  0  0  0  0  0  0  0  0  0  0  0
   -0.6517   -1.3642    0.0000 O   0  0  0  0  0  0  0  0  0  0  0  0
   -0.8197   -2.8547    0.0000 C   0  0  0  0  0  0  0  0  0  0  0  0
  1  2  1  0
  2  3  1  0
  3  4  2  0
  4  5  1  0
  5  6  2  0
  6  7  1  0
  6  8  1  0
  8  9  1  0
  9 10  2  0
  9 11  1  0
 11 12  1  0
 12 13  1  0
 13 14  2  0
 14 15  1  0
 15 16  2  0
 16 17  1  0
 17 18  2  0
  8 19  2  0
 19 20  1  0
 20 21  1  0
 19  3  1  0
 18 13  1  0
M  END
>  <identifier>  (313) 
CNP0321171.0

>  <canonical_smiles>  (313) 
COC1=CC=C(O)C(C(=O)OCC2=CC=CC=C2)=C1OC

>  <standard_inchi>  (313) 
InChI=1S/C16H16O5/c1-19-13-9-8-12(17)14(15(13)20-2)16(18)21-10-11-6-4-3-5-7-11/h3-9,17H,10H2,1-2H3

>  <standard_inchi_key>  (313) 
HKRGBDMRFLWKMB-UHFFFAOYSA-N

>  <name>  (313) 
Benzyl 6-hydroxy-2,3-dimethoxybenzoate

>  <iupac_name>  (313) 
benzyl 6-hydroxy-2,3-dimethoxy-benzoate

>  <annotation_level>  (313) 
5

>  <total_atom_count>  (313) 
37

>  <heavy_atom_count>  (313) 
21

>  <molecular_weight>  (313) 
288.3

>  <exact_molecular_weight>  (313) 
288.09977

>  <molecular_formula>  (313) 
C16H16O5

>  <alogp>  (313) 
2.77

>  <topological_polar_surface_area>  (313) 
64.99

>  <rotatable_bond_count>  (313) 
5

>  <hydrogen_bond_acceptors>  (313) 
5

>  <hydrogen_bond_donors>  (313) 
1

>  <hydrogen_bond_acceptors_lipinski>  (313) 
5

>  <hydrogen_bond_donors_lipinski>  (313) 
1

>  <lipinski_rule_of_five_violations>  (313) 
0

>  <aromatic_rings_count>  (313) 
2

>  <qed_drug_likeliness>  (313) 
0.86

>  <formal_charge>  (313) 
0

>  <fractioncsp3>  (313) 
0.19

>  <number_of_minimal_rings>  (313) 
2

>  <van_der_walls_volume>  (313) 
257.49

>  <contains_sugar>  (313) 
False

>  <contains_ring_sugars>  (313) 
False

>  <contains_linear_sugars>  (313) 
False

>  <murcko_framework>  (313) 
O(Cc1ccccc1)Cc2ccccc2

>  <np_likeness>  (313) 
0.24

>  <chemical_class>  (313) 
Benzene and substituted derivatives

>  <chemical_sub_class>  (313) 
Benzoic acids and derivatives

>  <chemical_super_class>  (313) 
Benzenoids

>  <direct_parent_classification>  (313) 
O-methoxybenzoic acids and derivatives

>  <np_classifier_pathway>  (313) 
Shikimates and Phenylpropanoids

>  <np_classifier_superclass>  (313) 
Phenolic acids (C6-C1)

>  <np_classifier_class>  (313) 
Simple phenolic acids

>  <np_classifier_is_glycoside>  (313) 
False

>  <organisms>  (313) 
Brickellia veronicifolia

>  <collections>  (313) 
BIOFACQUIM|Latin America dataset|UNPD (Universal Natural Products Database)

>  <dois>  (313) 
10.1055/s-2005-864097

>  <synonyms>  (313) 
63147-21-7|DTXSID10565271|Benzyl 2-hydroxy-3 6-dimethoxybenzoate

>  <cas>  (313) 
63147-21-7

$$$$

     RDKit          2D

 22 23  0  0  0  0  0  0  0  0999 V2000
   -6.1988   -2.2994    0.0000 C   0  0  0  0  0  0  0  0  0  0  0  0
   -4.7480   -1.9184    0.0000 O   0  0  0  0  0  0  0  0  0  0  0  0
   -4.3525   -0.4715    0.0000 C   0  0  0  0  0  0  0  0  0  0  0  0
   -5.4079    0.5944    0.0000 C   0  0  0  0  0  0  0  0  0  0  0  0
   -5.0124    2.0414    0.0000 C   0  0  0  0  0  0  0  0  0  0  0  0
   -3.5616    2.4224    0.0000 C   0  0  0  0  0  0  0  0  0  0  0  0
   -2.5063    1.3564    0.0000 C   0  0  0  0  0  0  0  0  0  0  0  0
   -1.0555    1.7374    0.0000 C   0  0  0  0  0  0  0  0  0  0  0  0
   -0.0001    0.6715    0.0000 O   0  0  0  0  0  0  0  0  0  0  0  0
    1.4507    1.0525    0.0000 C   0  0  0  0  0  0  0  0  0  0  0  0
    1.8461    2.4995    0.0000 O   0  0  0  0  0  0  0  0  0  0  0  0
    2.5061   -0.0134    0.0000 C   0  0  0  0  0  0  0  0  0  0  0  0
    2.1106   -1.4604    0.0000 C   0  0  0  0  0  0  0  0  0  0  0  0
    0.6598   -1.8414    0.0000 O   0  0  0  0  0  0  0  0  0  0  0  0
    0.2644   -3.2883    0.0000 C   0  0  0  0  0  0  0  0  0  0  0  0
    3.1660   -2.5263    0.0000 C   0  0  0  0  0  0  0  0  0  0  0  0
    4.6168   -2.1453    0.0000 C   0  0  0  0  0  0  0  0  0  0  0  0
    5.0122   -0.6984    0.0000 C   0  0  0  0  0  0  0  0  0  0  0  0
    3.9569    0.3676    0.0000 C   0  0  0  0  0  0  0  0  0  0  0  0
    4.3523    1.8145    0.0000 O   0  0  0  0  0  0  0  0  0  0  0  0
    5.8031    2.1955    0.0000 C   0  0  0  0  0  0  0  0  0  0  0  0
   -2.9017   -0.0905    0.0000 C   0  0  0  0  0  0  0  0  0  0  0  0
  1  2  1  0
  2  3  1  0
  3  4  2  0
  4  5  1  0
  5  6  2  0
  6  7  1  0
  7  8  1  0
  8  9  1  0
  9 10  1  0
 10 11  2  0
 10 12  1  0
 12 13  2  0
 13 14  1  0
 14 15  1  0
 13 16  1  0
 16 17  2  0
 17 18  1  0
 18 19  2  0
 19 20  1  0
 20 21  1  0
  7 22  2  0
 22  3  1  0
 19 12  1  0
M  END
>  <identifier>  (314) 
CNP0110274.0

>  <canonical_smiles>  (314) 
COC1=CC=CC(COC(=O)C2=C(OC)C=CC=C2OC)=C1

>  <standard_inchi>  (314) 
InChI=1S/C17H18O5/c1-19-13-7-4-6-12(10-13)11-22-17(18)16-14(20-2)8-5-9-15(16)21-3/h4-10H,11H2,1-3H3

>  <standard_inchi_key>  (314) 
DZDQHOAIKWCQDB-UHFFFAOYSA-N

>  <name>  (314) 
62458-50-8

>  <iupac_name>  (314) 
(3-methoxyphenyl)methyl 2,6-dimethoxybenzoate

>  <annotation_level>  (314) 
5

>  <total_atom_count>  (314) 
40

>  <heavy_atom_count>  (314) 
22

>  <molecular_weight>  (314) 
302.33

>  <exact_molecular_weight>  (314) 
302.11542

>  <molecular_formula>  (314) 
C17H18O5

>  <alogp>  (314) 
3.07

>  <topological_polar_surface_area>  (314) 
53.99

>  <rotatable_bond_count>  (314) 
6

>  <hydrogen_bond_acceptors>  (314) 
5

>  <hydrogen_bond_donors>  (314) 
0

>  <hydrogen_bond_acceptors_lipinski>  (314) 
5

>  <hydrogen_bond_donors_lipinski>  (314) 
0

>  <lipinski_rule_of_five_violations>  (314) 
0

>  <aromatic_rings_count>  (314) 
2

>  <qed_drug_likeliness>  (314) 
0.77

>  <formal_charge>  (314) 
0

>  <fractioncsp3>  (314) 
0.24

>  <number_of_minimal_rings>  (314) 
2

>  <van_der_walls_volume>  (314) 
276.36

>  <contains_sugar>  (314) 
False

>  <contains_ring_sugars>  (314) 
False

>  <contains_linear_sugars>  (314) 
False

>  <murcko_framework>  (314) 
O(Cc1ccccc1)Cc2ccccc2

>  <np_likeness>  (314) 
-0.36

>  <chemical_class>  (314) 
Benzene and substituted derivatives

>  <chemical_sub_class>  (314) 
Benzoic acids and derivatives

>  <chemical_super_class>  (314) 
Benzenoids

>  <direct_parent_classification>  (314) 
O-methoxybenzoic acids and derivatives

>  <np_classifier_pathway>  (314) 
nan

>  <np_classifier_superclass>  (314) 
nan

>  <np_classifier_class>  (314) 
nan

>  <np_classifier_is_glycoside>  (314) 
False

>  <organisms>  (314) 
Brickellia veronicifolia

>  <collections>  (314) 
BIOFACQUIM|Latin America dataset|Super Natural II|UNPD (Universal Natural Products Database)

>  <dois>  (314) 
10.1055/s-2005-864097

>  <synonyms>  (314) 
Benzoic acid| 2|6-dimethoxy-| (3-methoxyphenyl)methyl ester|DTXSID80468806|3'-methoxybenzyl 2 6-dimethoxybenzoate

>  <cas>  (314) 
nan

$$$$

     RDKit          2D

 37 41  0  0  0  0  0  0  0  0999 V2000
    2.9241   -3.9950    0.0000 C   0  0  0  0  0  0  0  0  0  0  0  0
    2.0407   -2.7828    0.0000 O   0  0  0  0  0  0  0  0  0  0  0  0
    2.6487   -1.4116    0.0000 C   0  0  0  0  0  0  0  0  0  0  0  0
    3.4383   -1.5214    0.0000 O   0  0  0  0  0  0  0  0  0  0  0  0
    1.7653   -0.1993    0.0000 C   0  0  0  0  0  0  0  0  0  0  0  0
    1.1572   -1.5705    0.0000 C   0  0  0  0  0  0  0  0  0  0  0  0
   -0.3344   -1.7295    0.0000 C   0  0  0  0  0  0  0  0  0  0  0  0
   -1.2178   -0.5173    0.0000 C   0  0  0  0  0  0  0  0  0  0  0  0
   -1.8259   -1.8885    0.0000 C   0  0  0  0  0  0  0  0  0  0  0  0
   -2.7094   -0.6763    0.0000 C   0  0  0  0  0  0  0  0  0  0  0  0
   -3.1063   -2.1228    0.0000 C   0  0  0  0  0  0  0  0  0  0  0  0
   -4.4847   -2.7144    0.0000 C   0  0  0  0  0  0  0  0  0  0  0  0
   -5.8067   -2.0055    0.0000 C   0  0  0  0  0  0  0  0  0  0  0  0
   -7.0189   -2.8890    0.0000 O   0  0  0  0  0  0  0  0  0  0  0  0
   -6.0767   -0.5300    0.0000 O   0  0  0  0  0  0  0  0  0  0  0  0
   -5.0914    0.6010    0.0000 C   0  0  0  0  0  0  0  0  0  0  0  0
   -3.5928    0.5359    0.0000 C   0  0  0  0  0  0  0  0  0  0  0  0
   -4.3832    1.8108    0.0000 C   0  0  0  0  0  0  0  0  0  0  0  0
   -3.6744    3.1327    0.0000 C   0  0  0  0  0  0  0  0  0  0  0  0
   -5.8825    1.7637    0.0000 O   0  0  0  0  0  0  0  0  0  0  0  0
   -2.9847    1.9071    0.0000 C   0  0  0  0  0  0  0  0  0  0  0  0
   -1.4932    2.0661    0.0000 C   0  0  0  0  0  0  0  0  0  0  0  0
   -0.8851    3.4374    0.0000 O   0  0  0  0  0  0  0  0  0  0  0  0
   -0.6097    0.8539    0.0000 C   0  0  0  0  0  0  0  0  0  0  0  0
    0.8818    1.0129    0.0000 C   0  0  0  0  0  0  0  0  0  0  0  0
   -0.0016    2.2251    0.0000 C   0  0  0  0  0  0  0  0  0  0  0  0
    1.4899    2.3841    0.0000 C   0  0  0  0  0  0  0  0  0  0  0  0
    2.9815    2.5431    0.0000 C   0  0  0  0  0  0  0  0  0  0  0  0
    3.8649    1.3309    0.0000 C   0  0  0  0  0  0  0  0  0  0  0  0
    4.4730    2.7021    0.0000 C   0  0  0  0  0  0  0  0  0  0  0  0
    5.3565    1.4899    0.0000 C   0  0  0  0  0  0  0  0  0  0  0  0
    6.2399    0.2776    0.0000 C   0  0  0  0  0  0  0  0  0  0  0  0
    5.6318   -1.0936    0.0000 C   0  0  0  0  0  0  0  0  0  0  0  0
    6.5153   -2.3058    0.0000 C   0  0  0  0  0  0  0  0  0  0  0  0
    4.1403   -1.2526    0.0000 C   0  0  0  0  0  0  0  0  0  0  0  0
    3.2568   -0.0403    0.0000 C   0  0  0  0  0  0  0  0  0  0  0  0
    2.3734    1.1719    0.0000 O   0  0  0  0  0  0  0  0  0  0  0  0
  1  2  1  0
  2  3  1  0
  3  4  2  0
  5  3  1  1
  5  6  1  0
  6  7  1  0
  7  8  1  0
  8  9  1  6
  8 10  1  0
 10 11  1  6
 11 12  2  0
 12 13  1  0
 13 14  2  0
 13 15  1  0
 15 16  1  0
 17 16  1  6
 17 18  1  0
 18 19  1  6
 18 20  1  0
 17 21  1  0
 21 22  1  0
 22 23  1  1
 24 22  1  6
 24 25  1  0
 25 26  1  6
 25 27  1  0
 27 28  1  0
 28 29  1  0
 29 30  1  6
 29 31  1  0
 31 32  1  0
 32 33  2  0
 33 34  1  0
 33 35  1  0
 35 36  1  0
 36 37  1  6
 25  5  1  0
 36 29  1  0
 36  5  1  0
 24  8  1  0
 17 10  1  0
M  END
>  <identifier>  (315) 
CNP0279721.1

>  <canonical_smiles>  (315) 
COC(=O)[C@@]12CC[C@@]3(C)[C@@H]4C=CC(=O)OC[C@]4([C@@H](C)O)C[C@@H](O)[C@@H]3[C@@]1(C)CC[C@@]1(C)CC=C(C)C[C@]12O

>  <standard_inchi>  (315) 
InChI=1S/C30H44O7/c1-18-9-10-25(3)11-13-27(5)23-20(32)16-28(19(2)31)17-37-22(33)8-7-21(28)26(23,4)12-14-29(27,24(34)36-6)30(25,35)15-18/h7-9,19-21,23,31-32,35H,10-17H2,1-6H3/t19-,20-,21+,23+,25-,26+,27-,28+,29+,30+/m1/s1

>  <standard_inchi_key>  (315) 
MYRCCYOWAVWIKR-NHBPQBDCSA-N

>  <name>  (315) 
Galphimine B

>  <iupac_name>  (315) 
methyl (1~{S},2~{R},5~{S},10~{S},11~{S},14~{S},15~{S},21~{S},23~{R})-10,23-dihydroxy-21-[(1~{R})-1-hydroxyethyl]-2,5,8,14-tetramethyl-18-oxo-19-oxapentacyclo[12.9.0.0^{2,11}.0^{5,10}.0^{15,21}]tricosa-7,16-diene-11-carboxylate

>  <annotation_level>  (315) 
5

>  <total_atom_count>  (315) 
81

>  <heavy_atom_count>  (315) 
37

>  <molecular_weight>  (315) 
516.68

>  <exact_molecular_weight>  (315) 
516.3087

>  <molecular_formula>  (315) 
C30H44O7

>  <alogp>  (315) 
3.70

>  <topological_polar_surface_area>  (315) 
113.29

>  <rotatable_bond_count>  (315) 
2

>  <hydrogen_bond_acceptors>  (315) 
7

>  <hydrogen_bond_donors>  (315) 
3

>  <hydrogen_bond_acceptors_lipinski>  (315) 
7

>  <hydrogen_bond_donors_lipinski>  (315) 
3

>  <lipinski_rule_of_five_violations>  (315) 
1

>  <aromatic_rings_count>  (315) 
0

>  <qed_drug_likeliness>  (315) 
0.38

>  <formal_charge>  (315) 
0

>  <fractioncsp3>  (315) 
0.80

>  <number_of_minimal_rings>  (315) 
5

>  <van_der_walls_volume>  (315) 
476.69

>  <contains_sugar>  (315) 
False

>  <contains_ring_sugars>  (315) 
False

>  <contains_linear_sugars>  (315) 
False

>  <murcko_framework>  (315) 
O1CC=CC2C(C1)CCC3C2CCC4C5CC=CCC5CCC43

>  <np_likeness>  (315) 
3.42

>  <chemical_class>  (315) 
Steroids and steroid derivatives

>  <chemical_sub_class>  (315) 
Hydroxysteroids

>  <chemical_super_class>  (315) 
Lipids and lipid-like molecules

>  <direct_parent_classification>  (315) 
Hydroxysteroids

>  <np_classifier_pathway>  (315) 
Terpenoids

>  <np_classifier_superclass>  (315) 
Triterpenoids

>  <np_classifier_class>  (315) 
Friedelane triterpenoids

>  <np_classifier_is_glycoside>  (315) 
False

>  <organisms>  (315) 
Galphimia glauca

>  <collections>  (315) 
BIOFACQUIM|Latin America dataset|NPASS|Super Natural II

>  <dois>  (315) 
10.1021/np0304666|10.1021/np050305x

>  <synonyms>  (315) 
149199-48-4|methyl (1S|2R|5S|10S|11S|14S|15S|21S|23R)-10|23-dihydroxy-21-(1R)-1-hydroxyethyl-2|5|8|14-tetramethyl-18-oxo-19-oxapentacyclo12.9.0.02|11.05|10.015|21tricosa-7|16-diene-11-carboxylate|CHEMBL523722|DTXSID30933574|AKOS040751887|Methyl (5aS-(5aalpha(S*)|7alpha|7aalpha|7bbeta|9abeta|13abeta|13balpha|15abeta|15balpha))-5|5a|6|7|7a|7b|8|9|9a|10|13|13a|14|15|15a|15b-hexadecahydro-7|13a-dihydroxy-5a-(1-hydroxyethyl)-7b|9a|12|15a-tetramethyl-3-oxochryseno(2|1-c)oxepin-13b(3H)-carboxylate|Methyl 5|5a|6|7|7a|7b|8|9|9a|10|13|13a|14|15|15a|15b-hexadecahydro-7|13a-dihydroxy-5a-(1-hydroxyethyl)-7b|9a|12|15a-tetramethyl-3-oxochryseno(2|1-c)oxepin-13b(3H)-carboxylate (5aS-(5aalpha(S*)|7alpha|7aalpha|7bbeta|9abeta|13abeta|13balpha|15abeta|15balpha))-|Chryseno(2|1-c)oxepin-13b(3H)-carboxylic acid| 5|5a|6|7|7a|7b|8|9|9a|10|13|13a|14|15|15a|15b-hexadecahydro-7|13a-dihydroxy-5a-(1-hydroxyethyl)-7b|9a|12|15a-tetramethyl-3-oxo-| methyl ester| (5aS-(5aalpha(S*)|7alpha|7aalpha|7bbeta|9abeta|13abeta|13balpha|15abeta|15balpha))-|D:A-Friedo-A-homo-23|24|30-trinor-4-oxaoleana-1|20-dien-27-oic acid| 7|18-dihydroxy-5-(1-hydroxyethyl)-3-oxo-| methyl ester| (5alpha(R)|7alpha)-|Methyl 7|13a-dihydroxy-5a-(1-hydroxyethyl)-7b|9a|12|15a-tetramethyl-3-oxo-5|5a|6|7|7a|7b|8|9|9a|10|13|13a|14|15|15a|15b-hexadecahydrochryseno2|1-coxepine-13b(3H)-carboxylate|Galphimine B

>  <cas>  (315) 
149199-48-4

$$$$

     RDKit          2D

 41 45  0  0  0  0  0  0  0  0999 V2000
    3.8194   -3.9253    0.0000 C   0  0  0  0  0  0  0  0  0  0  0  0
    2.7762   -2.8474    0.0000 O   0  0  0  0  0  0  0  0  0  0  0  0
    3.1882   -1.4051    0.0000 C   0  0  0  0  0  0  0  0  0  0  0  0
    4.6882   -1.4036    0.0000 O   0  0  0  0  0  0  0  0  0  0  0  0
    2.1450   -0.3272    0.0000 C   0  0  0  0  0  0  0  0  0  0  0  0
    1.7331   -1.7695    0.0000 C   0  0  0  0  0  0  0  0  0  0  0  0
    0.2781   -2.1339    0.0000 C   0  0  0  0  0  0  0  0  0  0  0  0
   -0.7651   -1.0560    0.0000 C   0  0  0  0  0  0  0  0  0  0  0  0
   -1.1770   -2.4984    0.0000 C   0  0  0  0  0  0  0  0  0  0  0  0
   -2.2201   -1.4205    0.0000 C   0  0  0  0  0  0  0  0  0  0  0  0
   -2.4125   -2.9081    0.0000 C   0  0  0  0  0  0  0  0  0  0  0  0
   -3.6955   -3.6852    0.0000 C   0  0  0  0  0  0  0  0  0  0  0  0
   -5.1030   -3.1666    0.0000 C   0  0  0  0  0  0  0  0  0  0  0  0
   -6.1809   -4.2098    0.0000 O   0  0  0  0  0  0  0  0  0  0  0  0
   -5.5751   -1.7429    0.0000 O   0  0  0  0  0  0  0  0  0  0  0  0
   -4.7564   -0.4861    0.0000 C   0  0  0  0  0  0  0  0  0  0  0  0
   -3.2633   -0.3426    0.0000 C   0  0  0  0  0  0  0  0  0  0  0  0
   -4.2229    0.8103    0.0000 C   0  0  0  0  0  0  0  0  0  0  0  0
   -4.1365    1.6027    0.0000 C   0  0  0  0  0  0  0  0  0  0  0  0
   -5.7012    0.5556    0.0000 O   0  0  0  0  0  0  0  0  0  0  0  0
   -2.8513    1.0998    0.0000 C   0  0  0  0  0  0  0  0  0  0  0  0
   -3.8945    2.1777    0.0000 O   0  0  0  0  0  0  0  0  0  0  0  0
   -3.4825    3.6200    0.0000 C   0  0  0  0  0  0  0  0  0  0  0  0
   -4.5257    4.6979    0.0000 C   0  0  0  0  0  0  0  0  0  0  0  0
   -2.0275    3.9844    0.0000 O   0  0  0  0  0  0  0  0  0  0  0  0
   -1.3963    1.4642    0.0000 C   0  0  0  0  0  0  0  0  0  0  0  0
   -0.9844    2.9065    0.0000 O   0  0  0  0  0  0  0  0  0  0  0  0
   -0.3532    0.3863    0.0000 C   0  0  0  0  0  0  0  0  0  0  0  0
    1.1019    0.7507    0.0000 C   0  0  0  0  0  0  0  0  0  0  0  0
    0.0588    1.8286    0.0000 C   0  0  0  0  0  0  0  0  0  0  0  0
    1.5138    2.1930    0.0000 C   0  0  0  0  0  0  0  0  0  0  0  0
    2.9689    2.5575    0.0000 C   0  0  0  0  0  0  0  0  0  0  0  0
    4.0120    1.4796    0.0000 C   0  0  0  0  0  0  0  0  0  0  0  0
    4.4240    2.9219    0.0000 C   0  0  0  0  0  0  0  0  0  0  0  0
    5.4671    1.8440    0.0000 C   0  0  0  0  0  0  0  0  0  0  0  0
    6.5102    0.7661    0.0000 C   0  0  0  0  0  0  0  0  0  0  0  0
    6.0983   -0.6762    0.0000 C   0  0  0  0  0  0  0  0  0  0  0  0
    7.1414   -1.7541    0.0000 C   0  0  0  0  0  0  0  0  0  0  0  0
    4.6432   -1.0407    0.0000 C   0  0  0  0  0  0  0  0  0  0  0  0
    3.6001    0.0372    0.0000 C   0  0  0  0  0  0  0  0  0  0  0  0
    2.5570    1.1151    0.0000 O   0  0  0  0  0  0  0  0  0  0  0  0
  1  2  1  0
  2  3  1  0
  3  4  2  0
  5  3  1  1
  5  6  1  0
  6  7  1  0
  7  8  1  0
  8  9  1  6
  8 10  1  0
 10 11  1  6
 11 12  2  0
 12 13  1  0
 13 14  2  0
 13 15  1  0
 15 16  1  0
 17 16  1  6
 17 18  1  0
 18 19  1  6
 18 20  1  0
 17 21  1  0
 21 22  1  1
 22 23  1  0
 23 24  1  0
 23 25  2  0
 21 26  1  0
 26 27  1  1
 28 26  1  6
 28 29  1  0
 29 30  1  6
 29 31  1  0
 31 32  1  0
 32 33  1  0
 33 34  1  6
 33 35  1  0
 35 36  1  0
 36 37  2  0
 37 38  1  0
 37 39  1  0
 39 40  1  0
 40 41  1  6
 29  5  1  0
 40 33  1  0
 40  5  1  0
 28  8  1  0
 17 10  1  0
M  END
>  <identifier>  (316) 
CNP0287346.1

>  <canonical_smiles>  (316) 
COC(=O)[C@@]12CC[C@@]3(C)[C@@H]4C=CC(=O)OC[C@]4([C@@H](C)O)[C@@H](OC(C)=O)[C@@H](O)[C@@H]3[C@@]1(C)CC[C@@]1(C)CC=C(C)C[C@]12O

>  <standard_inchi>  (316) 
InChI=1S/C32H46O9/c1-18-10-11-27(4)12-14-29(6)24-23(36)25(41-20(3)34)30(19(2)33)17-40-22(35)9-8-21(30)28(24,5)13-15-31(29,26(37)39-7)32(27,38)16-18/h8-10,19,21,23-25,33,36,38H,11-17H2,1-7H3/t19-,21+,23+,24+,25+,27-,28+,29-,30-,31+,32+/m1/s1

>  <standard_inchi_key>  (316) 
MAASNULAYUTHCM-STODXTIPSA-N

>  <name>  (316) 
galphimine E

>  <iupac_name>  (316) 
methyl (1~{S},2~{R},5~{S},10~{S},11~{S},14~{S},15~{S},21~{R},22~{R},23~{S})-22-acetoxy-10,23-dihydroxy-21-[(1~{R})-1-hydroxyethyl]-2,5,8,14-tetramethyl-18-oxo-19-oxapentacyclo[12.9.0.0^{2,11}.0^{5,10}.0^{15,21}]tricosa-7,16-diene-11-carboxylate

>  <annotation_level>  (316) 
5

>  <total_atom_count>  (316) 
87

>  <heavy_atom_count>  (316) 
41

>  <molecular_weight>  (316) 
574.71

>  <exact_molecular_weight>  (316) 
574.31418

>  <molecular_formula>  (316) 
C32H46O9

>  <alogp>  (316) 
3.24

>  <topological_polar_surface_area>  (316) 
139.59

>  <rotatable_bond_count>  (316) 
3

>  <hydrogen_bond_acceptors>  (316) 
9

>  <hydrogen_bond_donors>  (316) 
3

>  <hydrogen_bond_acceptors_lipinski>  (316) 
9

>  <hydrogen_bond_donors_lipinski>  (316) 
3

>  <lipinski_rule_of_five_violations>  (316) 
1

>  <aromatic_rings_count>  (316) 
0

>  <qed_drug_likeliness>  (316) 
0.26

>  <formal_charge>  (316) 
0

>  <fractioncsp3>  (316) 
0.78

>  <number_of_minimal_rings>  (316) 
5

>  <van_der_walls_volume>  (316) 
522.38

>  <contains_sugar>  (316) 
False

>  <contains_ring_sugars>  (316) 
False

>  <contains_linear_sugars>  (316) 
False

>  <murcko_framework>  (316) 
O1CC=CC2C(C1)CCC3C2CCC4C5CC=CCC5CCC43

>  <np_likeness>  (316) 
3.39

>  <chemical_class>  (316) 
Steroids and steroid derivatives

>  <chemical_sub_class>  (316) 
Hydroxysteroids

>  <chemical_super_class>  (316) 
Lipids and lipid-like molecules

>  <direct_parent_classification>  (316) 
Hydroxysteroids

>  <np_classifier_pathway>  (316) 
Terpenoids

>  <np_classifier_superclass>  (316) 
Triterpenoids

>  <np_classifier_class>  (316) 
Friedelane triterpenoids

>  <np_classifier_is_glycoside>  (316) 
False

>  <organisms>  (316) 
Galphimia glauca

>  <collections>  (316) 
BIOFACQUIM|Latin America dataset|NPASS|Super Natural II

>  <dois>  (316) 
10.1021/np0304666

>  <synonyms>  (316) 
CHEMBL502176|methyl (1S|2R|5S|10S|11S|14S|15S|21R|22R|23S)-22-acetyloxy-10|23-dihydroxy-21-(1R)-1-hydroxyethyl-2|5|8|14-tetramethyl-18-oxo-19-oxapentacyclo12.9.0.02|11.05|10.015|21tricosa-7|16-diene-11-carboxylate|Galphimine E

>  <cas>  (316) 
nan

$$$$

     RDKit          2D

 12 12  0  0  0  0  0  0  0  0999 V2000
   -3.7537   -0.0213    0.0000 C   0  0  0  0  0  0  0  0  0  0  0  0
   -2.5235   -0.8795    0.0000 O   0  0  0  0  0  0  0  0  0  0  0  0
   -1.1651   -0.2432    0.0000 C   0  0  0  0  0  0  0  0  0  0  0  0
   -1.0371    1.2514    0.0000 C   0  0  0  0  0  0  0  0  0  0  0  0
    0.3213    1.8877    0.0000 C   0  0  0  0  0  0  0  0  0  0  0  0
    0.4493    3.3822    0.0000 O   0  0  0  0  0  0  0  0  0  0  0  0
    1.5515    1.0295    0.0000 C   0  0  0  0  0  0  0  0  0  0  0  0
    1.4234   -0.4650    0.0000 C   0  0  0  0  0  0  0  0  0  0  0  0
    2.9175   -0.3316    0.0000 C   0  0  0  0  0  0  0  0  0  0  0  0
    1.8143   -1.9132    0.0000 O   0  0  0  0  0  0  0  0  0  0  0  0
    0.0651   -1.1013    0.0000 C   0  0  0  0  0  0  0  0  0  0  0  0
   -0.0630   -2.5958    0.0000 O   0  0  0  0  0  0  0  0  0  0  0  0
  1  2  1  0
  2  3  1  0
  3  4  2  0
  4  5  1  0
  5  6  2  0
  5  7  1  0
  7  8  1  0
  8  9  1  6
  8 10  1  0
  8 11  1  0
 11 12  1  1
 11  3  1  0
M  END
>  <identifier>  (317) 
CNP0161722.1

>  <canonical_smiles>  (317) 
COC1=CC(=O)C[C@@](C)(O)[C@H]1O

>  <standard_inchi>  (317) 
InChI=1S/C8H12O4/c1-8(11)4-5(9)3-6(12-2)7(8)10/h3,7,10-11H,4H2,1-2H3/t7-,8+/m0/s1

>  <standard_inchi_key>  (317) 
WJKXLOGUCSSDAB-JGVFFNPUSA-N

>  <name>  (317) 
(4S,5R)-4,5-Dihydroxy-3-methoxy-5-methylcyclohex-2-enone

>  <iupac_name>  (317) 
(4~{R},5~{R})-4,5-dihydroxy-3-methoxy-5-methyl-cyclohex-2-en-1-one

>  <annotation_level>  (317) 
5

>  <total_atom_count>  (317) 
24

>  <heavy_atom_count>  (317) 
12

>  <molecular_weight>  (317) 
172.18

>  <exact_molecular_weight>  (317) 
172.07356

>  <molecular_formula>  (317) 
C8H12O4

>  <alogp>  (317) 
-0.40

>  <topological_polar_surface_area>  (317) 
66.76

>  <rotatable_bond_count>  (317) 
1

>  <hydrogen_bond_acceptors>  (317) 
4

>  <hydrogen_bond_donors>  (317) 
2

>  <hydrogen_bond_acceptors_lipinski>  (317) 
4

>  <hydrogen_bond_donors_lipinski>  (317) 
2

>  <lipinski_rule_of_five_violations>  (317) 
0

>  <aromatic_rings_count>  (317) 
0

>  <qed_drug_likeliness>  (317) 
0.56

>  <formal_charge>  (317) 
0

>  <fractioncsp3>  (317) 
0.63

>  <number_of_minimal_rings>  (317) 
1

>  <van_der_walls_volume>  (317) 
157.18

>  <contains_sugar>  (317) 
False

>  <contains_ring_sugars>  (317) 
False

>  <contains_linear_sugars>  (317) 
False

>  <murcko_framework>  (317) 
C1=CCCCC1

>  <np_likeness>  (317) 
2.77

>  <chemical_class>  (317) 
Organooxygen compounds

>  <chemical_sub_class>  (317) 
Carbonyl compounds

>  <chemical_super_class>  (317) 
Organic oxygen compounds

>  <direct_parent_classification>  (317) 
Cyclohexenones

>  <np_classifier_pathway>  (317) 
Polyketides

>  <np_classifier_superclass>  (317) 
nan

>  <np_classifier_class>  (317) 
nan

>  <np_classifier_is_glycoside>  (317) 
False

>  <organisms>  (317) 
Aspergillus sp.|Xylaria feejeensis

>  <collections>  (317) 
BIOFACQUIM|EMNPD|Latin America dataset|NPAtlas

>  <dois>  (317) 
10.1021/np040139d|10.1021/np500897y

>  <synonyms>  (317) 
(4R|5R)-4|5-dihydroxy-3-methoxy-5-methyl-cyclohex-2-en-1-one|CHEBI:216123|2-Cyclohexen-1-one| 4|5-dihydroxy-3-methoxy-5-methyl-| (4R|5R)-

>  <cas>  (317) 
nan

$$$$

     RDKit          2D

 38 42  0  0  0  0  0  0  0  0999 V2000
    3.0927   -3.9796    0.0000 C   0  0  0  0  0  0  0  0  0  0  0  0
    2.1831   -2.7868    0.0000 O   0  0  0  0  0  0  0  0  0  0  0  0
    2.7613   -1.4027    0.0000 C   0  0  0  0  0  0  0  0  0  0  0  0
    4.2512   -1.5771    0.0000 O   0  0  0  0  0  0  0  0  0  0  0  0
    1.8518   -0.2099    0.0000 C   0  0  0  0  0  0  0  0  0  0  0  0
    1.2736   -1.5940    0.0000 C   0  0  0  0  0  0  0  0  0  0  0  0
   -0.2142   -1.7853    0.0000 C   0  0  0  0  0  0  0  0  0  0  0  0
   -1.1237   -0.5926    0.0000 C   0  0  0  0  0  0  0  0  0  0  0  0
   -1.7019   -1.9767    0.0000 C   0  0  0  0  0  0  0  0  0  0  0  0
   -2.6115   -0.7839    0.0000 C   0  0  0  0  0  0  0  0  0  0  0  0
   -2.9769   -2.2387    0.0000 C   0  0  0  0  0  0  0  0  0  0  0  0
   -4.3422   -2.8601    0.0000 C   0  0  0  0  0  0  0  0  0  0  0  0
   -5.6792   -2.1801    0.0000 C   0  0  0  0  0  0  0  0  0  0  0  0
   -6.8720   -3.0896    0.0000 O   0  0  0  0  0  0  0  0  0  0  0  0
   -5.9812   -0.7108    0.0000 O   0  0  0  0  0  0  0  0  0  0  0  0
   -5.0207    0.4414    0.0000 C   0  0  0  0  0  0  0  0  0  0  0  0
   -3.5210    0.4089    0.0000 C   0  0  0  0  0  0  0  0  0  0  0  0
   -4.3389    1.6663    0.0000 C   0  0  0  0  0  0  0  0  0  0  0  0
   -4.0669    2.4156    0.0000 C   0  0  0  0  0  0  0  0  0  0  0  0
   -5.8368    1.5867    0.0000 O   0  0  0  0  0  0  0  0  0  0  0  0
   -2.9429    1.7930    0.0000 C   0  0  0  0  0  0  0  0  0  0  0  0
   -3.3454    2.4810    0.0000 O   0  0  0  0  0  0  0  0  0  0  0  0
   -1.4551    1.9843    0.0000 C   0  0  0  0  0  0  0  0  0  0  0  0
   -0.8769    3.3684    0.0000 O   0  0  0  0  0  0  0  0  0  0  0  0
   -0.5455    0.7915    0.0000 C   0  0  0  0  0  0  0  0  0  0  0  0
    0.9422    0.9828    0.0000 C   0  0  0  0  0  0  0  0  0  0  0  0
    0.0326    2.1756    0.0000 C   0  0  0  0  0  0  0  0  0  0  0  0
    1.5204    2.3669    0.0000 C   0  0  0  0  0  0  0  0  0  0  0  0
    3.0081    2.5582    0.0000 C   0  0  0  0  0  0  0  0  0  0  0  0
    3.9177    1.3655    0.0000 C   0  0  0  0  0  0  0  0  0  0  0  0
    4.4959    2.7496    0.0000 C   0  0  0  0  0  0  0  0  0  0  0  0
    5.4054    1.5568    0.0000 C   0  0  0  0  0  0  0  0  0  0  0  0
    6.3150    0.3640    0.0000 C   0  0  0  0  0  0  0  0  0  0  0  0
    5.7368   -1.0201    0.0000 C   0  0  0  0  0  0  0  0  0  0  0  0
    6.6464   -2.2128    0.0000 C   0  0  0  0  0  0  0  0  0  0  0  0
    4.2491   -1.2114    0.0000 C   0  0  0  0  0  0  0  0  0  0  0  0
    3.3395   -0.0186    0.0000 C   0  0  0  0  0  0  0  0  0  0  0  0
    2.4299    1.1742    0.0000 O   0  0  0  0  0  0  0  0  0  0  0  0
  1  2  1  0
  2  3  1  0
  3  4  2  0
  5  3  1  1
  5  6  1  0
  6  7  1  0
  7  8  1  0
  8  9  1  6
  8 10  1  0
 10 11  1  6
 11 12  2  0
 12 13  1  0
 13 14  2  0
 13 15  1  0
 15 16  1  0
 17 16  1  6
 17 18  1  0
 18 19  1  6
 18 20  1  0
 17 21  1  0
 21 22  1  1
 21 23  1  0
 23 24  1  1
 25 23  1  6
 25 26  1  0
 26 27  1  6
 26 28  1  0
 28 29  1  0
 29 30  1  0
 30 31  1  6
 30 32  1  0
 32 33  1  0
 33 34  2  0
 34 35  1  0
 34 36  1  0
 36 37  1  0
 37 38  1  6
 26  5  1  0
 37 30  1  0
 37  5  1  0
 25  8  1  0
 17 10  1  0
M  END
>  <identifier>  (318) 
CNP0261129.1

>  <canonical_smiles>  (318) 
COC(=O)[C@@]12CC[C@@]3(C)[C@@H]4C=CC(=O)OC[C@]4([C@@H](C)O)[C@@H](O)[C@@H](O)[C@@H]3[C@@]1(C)CC[C@@]1(C)CC=C(C)C[C@]12O

>  <standard_inchi>  (318) 
InChI=1S/C30H44O8/c1-17-9-10-25(3)11-13-27(5)22-21(33)23(34)28(18(2)31)16-38-20(32)8-7-19(28)26(22,4)12-14-29(27,24(35)37-6)30(25,36)15-17/h7-9,18-19,21-23,31,33-34,36H,10-16H2,1-6H3/t18-,19+,21+,22+,23+,25-,26+,27-,28-,29+,30+/m1/s1

>  <standard_inchi_key>  (318) 
HRMXSRHLUOTLBH-PJFLNFRUSA-N

>  <name>  (318) 
Galphimine A

>  <iupac_name>  (318) 
methyl (1~{S},2~{R},5~{S},10~{S},11~{S},14~{S},15~{S},21~{R},22~{R},23~{S})-10,22,23-trihydroxy-21-[(1~{R})-1-hydroxyethyl]-2,5,8,14-tetramethyl-18-oxo-19-oxapentacyclo[12.9.0.0^{2,11}.0^{5,10}.0^{15,21}]tricosa-7,16-diene-11-carboxylate

>  <annotation_level>  (318) 
5

>  <total_atom_count>  (318) 
82

>  <heavy_atom_count>  (318) 
38

>  <molecular_weight>  (318) 
532.67

>  <exact_molecular_weight>  (318) 
532.30362

>  <molecular_formula>  (318) 
C30H44O8

>  <alogp>  (318) 
2.67

>  <topological_polar_surface_area>  (318) 
133.52

>  <rotatable_bond_count>  (318) 
2

>  <hydrogen_bond_acceptors>  (318) 
8

>  <hydrogen_bond_donors>  (318) 
4

>  <hydrogen_bond_acceptors_lipinski>  (318) 
8

>  <hydrogen_bond_donors_lipinski>  (318) 
4

>  <lipinski_rule_of_five_violations>  (318) 
1

>  <aromatic_rings_count>  (318) 
0

>  <qed_drug_likeliness>  (318) 
0.32

>  <formal_charge>  (318) 
0

>  <fractioncsp3>  (318) 
0.80

>  <number_of_minimal_rings>  (318) 
5

>  <van_der_walls_volume>  (318) 
487.00

>  <contains_sugar>  (318) 
False

>  <contains_ring_sugars>  (318) 
False

>  <contains_linear_sugars>  (318) 
False

>  <murcko_framework>  (318) 
O1CC=CC2C(C1)CCC3C2CCC4C5CC=CCC5CCC43

>  <np_likeness>  (318) 
3.38

>  <chemical_class>  (318) 
Steroids and steroid derivatives

>  <chemical_sub_class>  (318) 
Hydroxysteroids

>  <chemical_super_class>  (318) 
Lipids and lipid-like molecules

>  <direct_parent_classification>  (318) 
Hydroxysteroids

>  <np_classifier_pathway>  (318) 
Terpenoids

>  <np_classifier_superclass>  (318) 
Triterpenoids

>  <np_classifier_class>  (318) 
Friedelane triterpenoids

>  <np_classifier_is_glycoside>  (318) 
False

>  <organisms>  (318) 
Galphimia glauca

>  <collections>  (318) 
BIOFACQUIM|Latin America dataset|NPASS

>  <dois>  (318) 
10.1021/np0304666|10.1021/np050305x

>  <synonyms>  (318) 
CHEMBL522335|methyl (1S|2R|5S|10S|11S|14S|15S|21R|22R|23S)-10|22|23-trihydroxy-21-(1R)-1-hydroxyethyl-2|5|8|14-tetramethyl-18-oxo-19-oxapentacyclo12.9.0.02|11.05|10.015|21tricosa-7|16-diene-11-carboxylate|Galphimine A

>  <cas>  (318) 
nan

$$$$

     RDKit          2D

 41 45  0  0  0  0  0  0  0  0999 V2000
    3.5630   -4.0860    0.0000 C   0  0  0  0  0  0  0  0  0  0  0  0
    2.5663   -2.9650    0.0000 O   0  0  0  0  0  0  0  0  0  0  0  0
    3.0388   -1.5413    0.0000 C   0  0  0  0  0  0  0  0  0  0  0  0
    4.5375   -1.6031    0.0000 O   0  0  0  0  0  0  0  0  0  0  0  0
    2.0421   -0.4204    0.0000 C   0  0  0  0  0  0  0  0  0  0  0  0
    1.5696   -1.8440    0.0000 C   0  0  0  0  0  0  0  0  0  0  0  0
    0.1005   -2.1467    0.0000 C   0  0  0  0  0  0  0  0  0  0  0  0
   -0.8962   -1.0257    0.0000 C   0  0  0  0  0  0  0  0  0  0  0  0
   -1.3687   -2.4494    0.0000 C   0  0  0  0  0  0  0  0  0  0  0  0
   -2.3654   -1.3284    0.0000 C   0  0  0  0  0  0  0  0  0  0  0  0
   -2.6203   -2.8066    0.0000 C   0  0  0  0  0  0  0  0  0  0  0  0
   -3.9350   -3.5288    0.0000 C   0  0  0  0  0  0  0  0  0  0  0  0
   -5.3194   -2.9513    0.0000 C   0  0  0  0  0  0  0  0  0  0  0  0
   -6.4403   -3.9480    0.0000 O   0  0  0  0  0  0  0  0  0  0  0  0
   -5.7310   -1.5089    0.0000 O   0  0  0  0  0  0  0  0  0  0  0  0
   -4.8599   -0.2878    0.0000 C   0  0  0  0  0  0  0  0  0  0  0  0
   -3.3621   -0.2074    0.0000 C   0  0  0  0  0  0  0  0  0  0  0  0
   -4.2722    0.9849    0.0000 C   0  0  0  0  0  0  0  0  0  0  0  0
   -4.0573    1.7525    0.0000 C   0  0  0  0  0  0  0  0  0  0  0  0
   -5.7599    0.7929    0.0000 O   0  0  0  0  0  0  0  0  0  0  0  0
   -2.8896    1.2162    0.0000 C   0  0  0  0  0  0  0  0  0  0  0  0
   -3.3427    1.8721    0.0000 O   0  0  0  0  0  0  0  0  0  0  0  0
   -1.4205    1.5189    0.0000 C   0  0  0  0  0  0  0  0  0  0  0  0
   -0.9480    2.9426    0.0000 O   0  0  0  0  0  0  0  0  0  0  0  0
   -1.9447    4.0635    0.0000 C   0  0  0  0  0  0  0  0  0  0  0  0
   -1.4723    5.4872    0.0000 C   0  0  0  0  0  0  0  0  0  0  0  0
   -3.4139    3.7609    0.0000 O   0  0  0  0  0  0  0  0  0  0  0  0
   -0.4238    0.3979    0.0000 C   0  0  0  0  0  0  0  0  0  0  0  0
    1.0454    0.7006    0.0000 C   0  0  0  0  0  0  0  0  0  0  0  0
    0.0487    1.8216    0.0000 C   0  0  0  0  0  0  0  0  0  0  0  0
    1.5178    2.1243    0.0000 C   0  0  0  0  0  0  0  0  0  0  0  0
    2.9870    2.4269    0.0000 C   0  0  0  0  0  0  0  0  0  0  0  0
    3.9837    1.3060    0.0000 C   0  0  0  0  0  0  0  0  0  0  0  0
    4.4561    2.7296    0.0000 C   0  0  0  0  0  0  0  0  0  0  0  0
    5.4528    1.6087    0.0000 C   0  0  0  0  0  0  0  0  0  0  0  0
    6.4495    0.4877    0.0000 C   0  0  0  0  0  0  0  0  0  0  0  0
    5.9771   -0.9360    0.0000 C   0  0  0  0  0  0  0  0  0  0  0  0
    6.9738   -2.0570    0.0000 C   0  0  0  0  0  0  0  0  0  0  0  0
    4.5079   -1.2387    0.0000 C   0  0  0  0  0  0  0  0  0  0  0  0
    3.5112   -0.1177    0.0000 C   0  0  0  0  0  0  0  0  0  0  0  0
    2.5145    1.0033    0.0000 O   0  0  0  0  0  0  0  0  0  0  0  0
  1  2  1  0
  2  3  1  0
  3  4  2  0
  5  3  1  1
  5  6  1  0
  6  7  1  0
  7  8  1  0
  8  9  1  6
  8 10  1  0
 10 11  1  6
 11 12  2  0
 12 13  1  0
 13 14  2  0
 13 15  1  0
 15 16  1  0
 17 16  1  6
 17 18  1  0
 18 19  1  6
 18 20  1  0
 17 21  1  0
 21 22  1  1
 21 23  1  0
 23 24  1  1
 24 25  1  0
 25 26  1  0
 25 27  2  0
 28 23  1  6
 28 29  1  0
 29 30  1  6
 29 31  1  0
 31 32  1  0
 32 33  1  0
 33 34  1  6
 33 35  1  0
 35 36  1  0
 36 37  2  0
 37 38  1  0
 37 39  1  0
 39 40  1  0
 40 41  1  6
 29  5  1  0
 40 33  1  0
 40  5  1  0
 28  8  1  0
 17 10  1  0
M  END
>  <identifier>  (319) 
CNP0172217.1

>  <canonical_smiles>  (319) 
COC(=O)[C@@]12CC[C@@]3(C)[C@@H]4C=CC(=O)OC[C@]4([C@@H](C)O)[C@@H](O)[C@@H](OC(C)=O)[C@@H]3[C@@]1(C)CC[C@@]1(C)CC=C(C)C[C@]12O

>  <standard_inchi>  (319) 
InChI=1S/C32H46O9/c1-18-10-11-27(4)12-14-29(6)24-23(41-20(3)34)25(36)30(19(2)33)17-40-22(35)9-8-21(30)28(24,5)13-15-31(29,26(37)39-7)32(27,38)16-18/h8-10,19,21,23-25,33,36,38H,11-17H2,1-7H3/t19-,21+,23+,24+,25+,27-,28+,29-,30-,31+,32+/m1/s1

>  <standard_inchi_key>  (319) 
BQZKAEWQBJHAIN-STODXTIPSA-N

>  <name>  (319) 
galphimine D

>  <iupac_name>  (319) 
methyl (1~{S},2~{R},5~{S},10~{S},11~{S},14~{S},15~{S},21~{R},22~{R},23~{S})-23-acetoxy-10,22-dihydroxy-21-[(1~{R})-1-hydroxyethyl]-2,5,8,14-tetramethyl-18-oxo-19-oxapentacyclo[12.9.0.0^{2,11}.0^{5,10}.0^{15,21}]tricosa-7,16-diene-11-carboxylate

>  <annotation_level>  (319) 
5

>  <total_atom_count>  (319) 
87

>  <heavy_atom_count>  (319) 
41

>  <molecular_weight>  (319) 
574.71

>  <exact_molecular_weight>  (319) 
574.31418

>  <molecular_formula>  (319) 
C32H46O9

>  <alogp>  (319) 
3.24

>  <topological_polar_surface_area>  (319) 
139.59

>  <rotatable_bond_count>  (319) 
3

>  <hydrogen_bond_acceptors>  (319) 
9

>  <hydrogen_bond_donors>  (319) 
3

>  <hydrogen_bond_acceptors_lipinski>  (319) 
9

>  <hydrogen_bond_donors_lipinski>  (319) 
3

>  <lipinski_rule_of_five_violations>  (319) 
1

>  <aromatic_rings_count>  (319) 
0

>  <qed_drug_likeliness>  (319) 
0.26

>  <formal_charge>  (319) 
0

>  <fractioncsp3>  (319) 
0.78

>  <number_of_minimal_rings>  (319) 
5

>  <van_der_walls_volume>  (319) 
522.58

>  <contains_sugar>  (319) 
False

>  <contains_ring_sugars>  (319) 
False

>  <contains_linear_sugars>  (319) 
False

>  <murcko_framework>  (319) 
O1CC=CC2C(C1)CCC3C2CCC4C5CC=CCC5CCC43

>  <np_likeness>  (319) 
3.36

>  <chemical_class>  (319) 
Steroids and steroid derivatives

>  <chemical_sub_class>  (319) 
Hydroxysteroids

>  <chemical_super_class>  (319) 
Lipids and lipid-like molecules

>  <direct_parent_classification>  (319) 
Hydroxysteroids

>  <np_classifier_pathway>  (319) 
Terpenoids

>  <np_classifier_superclass>  (319) 
Triterpenoids

>  <np_classifier_class>  (319) 
Friedelane triterpenoids

>  <np_classifier_is_glycoside>  (319) 
False

>  <organisms>  (319) 
Galphimia glauca

>  <collections>  (319) 
BIOFACQUIM|Latin America dataset|Super Natural II

>  <dois>  (319) 
10.1021/np0304666

>  <synonyms>  (319) 
CHEMBL447766|Galphimine D

>  <cas>  (319) 
nan

$$$$

     RDKit          2D

 37 41  0  0  0  0  0  0  0  0999 V2000
    6.4627    2.2441    0.0000 C   0  0  0  0  0  0  0  0  0  0  0  0
    5.5731    1.0365    0.0000 C   0  0  0  0  0  0  0  0  0  0  0  0
    6.1741   -0.3379    0.0000 C   0  0  0  0  0  0  0  0  0  0  0  0
    5.2844   -1.5455    0.0000 C   0  0  0  0  0  0  0  0  0  0  0  0
    3.7937   -1.3789    0.0000 C   0  0  0  0  0  0  0  0  0  0  0  0
    4.3947   -2.7532    0.0000 C   0  0  0  0  0  0  0  0  0  0  0  0
    2.9040   -2.5865    0.0000 C   0  0  0  0  0  0  0  0  0  0  0  0
    1.4133   -2.4199    0.0000 C   0  0  0  0  0  0  0  0  0  0  0  0
    0.8123   -1.0456    0.0000 C   0  0  0  0  0  0  0  0  0  0  0  0
   -0.0774   -2.2532    0.0000 C   0  0  0  0  0  0  0  0  0  0  0  0
   -0.6785   -0.8789    0.0000 C   0  0  0  0  0  0  0  0  0  0  0  0
   -1.5681   -2.0866    0.0000 C   0  0  0  0  0  0  0  0  0  0  0  0
   -0.9671   -3.4609    0.0000 O   0  0  0  0  0  0  0  0  0  0  0  0
   -3.0589   -1.9199    0.0000 C   0  0  0  0  0  0  0  0  0  0  0  0
   -3.6599   -0.5456    0.0000 C   0  0  0  0  0  0  0  0  0  0  0  0
   -4.4568   -1.8164    0.0000 C   0  0  0  0  0  0  0  0  0  0  0  0
   -5.9558   -1.7616    0.0000 C   0  0  0  0  0  0  0  0  0  0  0  0
   -3.7548   -3.1419    0.0000 O   0  0  0  0  0  0  0  0  0  0  0  0
   -5.1588   -0.6030    0.0000 C   0  0  0  0  0  0  0  0  0  0  0  0
   -6.1382    0.5332    0.0000 O   0  0  0  0  0  0  0  0  0  0  0  0
   -5.8606    2.0072    0.0000 C   0  0  0  0  0  0  0  0  0  0  0  0
   -7.0683    2.8969    0.0000 O   0  0  0  0  0  0  0  0  0  0  0  0
   -4.5350    2.7093    0.0000 C   0  0  0  0  0  0  0  0  0  0  0  0
   -3.1597    2.1106    0.0000 C   0  0  0  0  0  0  0  0  0  0  0  0
   -2.7702    0.6621    0.0000 C   0  0  0  0  0  0  0  0  0  0  0  0
   -1.2795    0.4954    0.0000 C   0  0  0  0  0  0  0  0  0  0  0  0
   -1.8805    1.8698    0.0000 C   0  0  0  0  0  0  0  0  0  0  0  0
   -0.3898    1.7031    0.0000 C   0  0  0  0  0  0  0  0  0  0  0  0
    1.1009    1.5364    0.0000 C   0  0  0  0  0  0  0  0  0  0  0  0
    1.7019    0.1621    0.0000 C   0  0  0  0  0  0  0  0  0  0  0  0
    2.5916    1.3698    0.0000 C   0  0  0  0  0  0  0  0  0  0  0  0
    3.3818    1.4755    0.0000 O   0  0  0  0  0  0  0  0  0  0  0  0
    1.9906    2.7441    0.0000 O   0  0  0  0  0  0  0  0  0  0  0  0
    2.8803    3.9518    0.0000 C   0  0  0  0  0  0  0  0  0  0  0  0
    3.1927   -0.0045    0.0000 C   0  0  0  0  0  0  0  0  0  0  0  0
    4.6834   -0.1712    0.0000 O   0  0  0  0  0  0  0  0  0  0  0  0
    4.0823    1.2031    0.0000 C   0  0  0  0  0  0  0  0  0  0  0  0
  1  2  2  0
  2  3  1  0
  3  4  1  0
  4  5  1  0
  5  6  1  1
  5  7  1  0
  7  8  1  0
  8  9  1  0
  9 10  1  1
  9 11  1  0
 11 12  1  1
 12 13  1  6
 12 14  1  0
 15 14  1  1
 15 16  1  0
 16 17  1  6
 16 18  1  0
 15 19  1  0
 19 20  1  0
 20 21  1  0
 21 22  2  0
 21 23  1  0
 23 24  2  0
 25 24  1  1
 25 26  1  0
 26 27  1  1
 26 28  1  0
 28 29  1  0
 29 30  1  0
 30 31  1  6
 31 32  2  0
 31 33  1  0
 33 34  1  0
 30 35  1  0
 35 36  1  1
 35 37  1  0
 37  2  1  0
 35  5  1  0
 30  9  1  0
 26 11  1  0
 25 15  1  0
M  END
>  <identifier>  (320) 
CNP0236133.1

>  <canonical_smiles>  (320) 
C=C1CC[C@]2(C)CC[C@]3(C)[C@H]4[C@H](O)C[C@@]5([C@@H](C)O)COC(=O)C=C[C@H]5[C@]4(C)CC[C@@]3(C(=O)OC)[C@]2(O)C1

>  <standard_inchi>  (320) 
InChI=1S/C30H44O7/c1-18-9-10-25(3)11-13-27(5)23-20(32)16-28(19(2)31)17-37-22(33)8-7-21(28)26(23,4)12-14-29(27,24(34)36-6)30(25,35)15-18/h7-8,19-21,23,31-32,35H,1,9-17H2,2-6H3/t19-,20-,21+,23+,25-,26+,27-,28+,29+,30+/m1/s1

>  <standard_inchi_key>  (320) 
PCDQKEPIJYVOPG-NHBPQBDCSA-N

>  <name>  (320) 
galphimine F

>  <iupac_name>  (320) 
methyl (1~{S},2~{R},5~{R},10~{S},11~{S},14~{S},15~{S},21~{S},23~{R})-10,23-dihydroxy-21-[(1~{R})-1-hydroxyethyl]-2,5,14-trimethyl-8-methylene-18-oxo-19-oxapentacyclo[12.9.0.0^{2,11}.0^{5,10}.0^{15,21}]tricos-16-ene-11-carboxylate

>  <annotation_level>  (320) 
5

>  <total_atom_count>  (320) 
81

>  <heavy_atom_count>  (320) 
37

>  <molecular_weight>  (320) 
516.68

>  <exact_molecular_weight>  (320) 
516.3087

>  <molecular_formula>  (320) 
C30H44O7

>  <alogp>  (320) 
3.70

>  <topological_polar_surface_area>  (320) 
113.29

>  <rotatable_bond_count>  (320) 
2

>  <hydrogen_bond_acceptors>  (320) 
7

>  <hydrogen_bond_donors>  (320) 
3

>  <hydrogen_bond_acceptors_lipinski>  (320) 
7

>  <hydrogen_bond_donors_lipinski>  (320) 
3

>  <lipinski_rule_of_five_violations>  (320) 
1

>  <aromatic_rings_count>  (320) 
0

>  <qed_drug_likeliness>  (320) 
0.38

>  <formal_charge>  (320) 
0

>  <fractioncsp3>  (320) 
0.80

>  <number_of_minimal_rings>  (320) 
5

>  <van_der_walls_volume>  (320) 
478.12

>  <contains_sugar>  (320) 
False

>  <contains_ring_sugars>  (320) 
False

>  <contains_linear_sugars>  (320) 
False

>  <murcko_framework>  (320) 
O1CC=CC2C(C1)CCC3C2CCC4C5CCCCC5CCC43

>  <np_likeness>  (320) 
3.40

>  <chemical_class>  (320) 
Steroids and steroid derivatives

>  <chemical_sub_class>  (320) 
Hydroxysteroids

>  <chemical_super_class>  (320) 
Lipids and lipid-like molecules

>  <direct_parent_classification>  (320) 
Hydroxysteroids

>  <np_classifier_pathway>  (320) 
Terpenoids

>  <np_classifier_superclass>  (320) 
nan

>  <np_classifier_class>  (320) 
nan

>  <np_classifier_is_glycoside>  (320) 
False

>  <organisms>  (320) 
Galphimia glauca

>  <collections>  (320) 
BIOFACQUIM|Latin America dataset|NPASS|Super Natural II

>  <dois>  (320) 
10.1021/np0304666

>  <synonyms>  (320) 
CHEMBL517336|Galphimine F

>  <cas>  (320) 
nan

$$$$

     RDKit          2D

 41 45  0  0  0  0  0  0  0  0999 V2000
    7.0837    1.7234    0.0000 C   0  0  0  0  0  0  0  0  0  0  0  0
    6.0386    0.6475    0.0000 C   0  0  0  0  0  0  0  0  0  0  0  0
    6.4478   -0.7957    0.0000 C   0  0  0  0  0  0  0  0  0  0  0  0
    5.4026   -1.8716    0.0000 C   0  0  0  0  0  0  0  0  0  0  0  0
    3.9483   -1.5044    0.0000 C   0  0  0  0  0  0  0  0  0  0  0  0
    4.3575   -2.9475    0.0000 C   0  0  0  0  0  0  0  0  0  0  0  0
    2.9031   -2.5804    0.0000 C   0  0  0  0  0  0  0  0  0  0  0  0
    1.4487   -2.2132    0.0000 C   0  0  0  0  0  0  0  0  0  0  0  0
    1.0395   -0.7701    0.0000 C   0  0  0  0  0  0  0  0  0  0  0  0
   -0.0056   -1.8460    0.0000 C   0  0  0  0  0  0  0  0  0  0  0  0
   -0.4148   -0.4029    0.0000 C   0  0  0  0  0  0  0  0  0  0  0  0
   -1.4600   -1.4788    0.0000 C   0  0  0  0  0  0  0  0  0  0  0  0
   -1.0508   -2.9219    0.0000 O   0  0  0  0  0  0  0  0  0  0  0  0
   -2.9144   -1.1117    0.0000 C   0  0  0  0  0  0  0  0  0  0  0  0
   -3.9595   -2.1876    0.0000 O   0  0  0  0  0  0  0  0  0  0  0  0
   -3.5503   -3.6307    0.0000 C   0  0  0  0  0  0  0  0  0  0  0  0
   -4.5955   -4.7067    0.0000 C   0  0  0  0  0  0  0  0  0  0  0  0
   -2.0960   -3.9979    0.0000 O   0  0  0  0  0  0  0  0  0  0  0  0
   -3.3236    0.3314    0.0000 C   0  0  0  0  0  0  0  0  0  0  0  0
   -4.2854   -0.8196    0.0000 C   0  0  0  0  0  0  0  0  0  0  0  0
   -5.7632   -0.5621    0.0000 C   0  0  0  0  0  0  0  0  0  0  0  0
   -4.2005   -1.6122    0.0000 O   0  0  0  0  0  0  0  0  0  0  0  0
   -4.8164    0.4777    0.0000 C   0  0  0  0  0  0  0  0  0  0  0  0
   -5.6328    1.7361    0.0000 O   0  0  0  0  0  0  0  0  0  0  0  0
   -5.1580    3.1590    0.0000 C   0  0  0  0  0  0  0  0  0  0  0  0
   -6.2339    4.2041    0.0000 O   0  0  0  0  0  0  0  0  0  0  0  0
   -3.7495    3.6749    0.0000 C   0  0  0  0  0  0  0  0  0  0  0  0
   -2.4680    2.8953    0.0000 C   0  0  0  0  0  0  0  0  0  0  0  0
   -2.2784    1.4074    0.0000 C   0  0  0  0  0  0  0  0  0  0  0  0
   -0.8240    1.0402    0.0000 C   0  0  0  0  0  0  0  0  0  0  0  0
   -1.2333    2.4833    0.0000 C   0  0  0  0  0  0  0  0  0  0  0  0
    0.2211    2.1161    0.0000 C   0  0  0  0  0  0  0  0  0  0  0  0
    1.6755    1.7490    0.0000 C   0  0  0  0  0  0  0  0  0  0  0  0
    2.0847    0.3059    0.0000 C   0  0  0  0  0  0  0  0  0  0  0  0
    3.1298    1.3818    0.0000 C   0  0  0  0  0  0  0  0  0  0  0  0
    4.6298    1.3775    0.0000 O   0  0  0  0  0  0  0  0  0  0  0  0
    2.7206    2.8249    0.0000 O   0  0  0  0  0  0  0  0  0  0  0  0
    3.7658    3.9008    0.0000 C   0  0  0  0  0  0  0  0  0  0  0  0
    3.5391   -0.0613    0.0000 C   0  0  0  0  0  0  0  0  0  0  0  0
    4.9934   -0.4285    0.0000 O   0  0  0  0  0  0  0  0  0  0  0  0
    4.5842    1.0146    0.0000 C   0  0  0  0  0  0  0  0  0  0  0  0
  1  2  2  0
  2  3  1  0
  3  4  1  0
  4  5  1  0
  5  6  1  1
  5  7  1  0
  7  8  1  0
  8  9  1  0
  9 10  1  1
  9 11  1  0
 11 12  1  1
 12 13  1  6
 12 14  1  0
 14 15  1  6
 15 16  1  0
 16 17  1  0
 16 18  2  0
 14 19  1  0
 19 20  1  0
 20 21  1  6
 20 22  1  0
 19 23  1  1
 23 24  1  0
 24 25  1  0
 25 26  2  0
 25 27  1  0
 27 28  2  0
 29 28  1  1
 29 30  1  0
 30 31  1  1
 30 32  1  0
 32 33  1  0
 33 34  1  0
 34 35  1  6
 35 36  2  0
 35 37  1  0
 37 38  1  0
 34 39  1  0
 39 40  1  1
 39 41  1  0
 41  2  1  0
 39  5  1  0
 34  9  1  0
 30 11  1  0
 29 19  1  0
M  END
>  <identifier>  (321) 
CNP0224741.1

>  <canonical_smiles>  (321) 
C=C1CC[C@]2(C)CC[C@]3(C)[C@H]4[C@H](O)[C@H](OC(C)=O)[C@@]5([C@@H](C)O)COC(=O)C=C[C@H]5[C@]4(C)CC[C@@]3(C(=O)OC)[C@]2(O)C1

>  <standard_inchi>  (321) 
InChI=1S/C32H46O9/c1-18-10-11-27(4)12-14-29(6)24-23(36)25(41-20(3)34)30(19(2)33)17-40-22(35)9-8-21(30)28(24,5)13-15-31(29,26(37)39-7)32(27,38)16-18/h8-9,19,21,23-25,33,36,38H,1,10-17H2,2-7H3/t19-,21+,23+,24+,25+,27-,28+,29-,30-,31+,32+/m1/s1

>  <standard_inchi_key>  (321) 
DFTOCERTSAMQSM-STODXTIPSA-N

>  <name>  (321) 
galphimine G

>  <iupac_name>  (321) 
methyl (1~{S},2~{R},5~{R},10~{S},11~{S},14~{S},15~{S},21~{R},22~{R},23~{S})-22-acetoxy-10,23-dihydroxy-21-[(1~{R})-1-hydroxyethyl]-2,5,14-trimethyl-8-methylene-18-oxo-19-oxapentacyclo[12.9.0.0^{2,11}.0^{5,10}.0^{15,21}]tricos-16-ene-11-carboxylate

>  <annotation_level>  (321) 
5

>  <total_atom_count>  (321) 
87

>  <heavy_atom_count>  (321) 
41

>  <molecular_weight>  (321) 
574.71

>  <exact_molecular_weight>  (321) 
574.31418

>  <molecular_formula>  (321) 
C32H46O9

>  <alogp>  (321) 
3.24

>  <topological_polar_surface_area>  (321) 
139.59

>  <rotatable_bond_count>  (321) 
3

>  <hydrogen_bond_acceptors>  (321) 
9

>  <hydrogen_bond_donors>  (321) 
3

>  <hydrogen_bond_acceptors_lipinski>  (321) 
9

>  <hydrogen_bond_donors_lipinski>  (321) 
3

>  <lipinski_rule_of_five_violations>  (321) 
1

>  <aromatic_rings_count>  (321) 
0

>  <qed_drug_likeliness>  (321) 
0.26

>  <formal_charge>  (321) 
0

>  <fractioncsp3>  (321) 
0.78

>  <number_of_minimal_rings>  (321) 
5

>  <van_der_walls_volume>  (321) 
521.80

>  <contains_sugar>  (321) 
False

>  <contains_ring_sugars>  (321) 
False

>  <contains_linear_sugars>  (321) 
False

>  <murcko_framework>  (321) 
O1CC=CC2C(C1)CCC3C2CCC4C5CCCCC5CCC43

>  <np_likeness>  (321) 
3.37

>  <chemical_class>  (321) 
Steroids and steroid derivatives

>  <chemical_sub_class>  (321) 
Hydroxysteroids

>  <chemical_super_class>  (321) 
Lipids and lipid-like molecules

>  <direct_parent_classification>  (321) 
Hydroxysteroids

>  <np_classifier_pathway>  (321) 
Terpenoids

>  <np_classifier_superclass>  (321) 
Triterpenoids

>  <np_classifier_class>  (321) 
Friedelane triterpenoids

>  <np_classifier_is_glycoside>  (321) 
False

>  <organisms>  (321) 
Galphimia glauca

>  <collections>  (321) 
BIOFACQUIM|KNApSaCK|Latin America dataset|NPASS|Super Natural II

>  <dois>  (321) 
10.1021/np0304666

>  <synonyms>  (321) 
CHEMBL509043|Galphimine G

>  <cas>  (321) 
nan

$$$$

     RDKit          2D

 38 42  0  0  0  0  0  0  0  0999 V2000
    6.5931    2.1568    0.0000 C   0  0  0  0  0  0  0  0  0  0  0  0
    5.6782    0.9682    0.0000 C   0  0  0  0  0  0  0  0  0  0  0  0
    6.2501   -0.4185    0.0000 C   0  0  0  0  0  0  0  0  0  0  0  0
    5.3352   -1.6072    0.0000 C   0  0  0  0  0  0  0  0  0  0  0  0
    3.8483   -1.4092    0.0000 C   0  0  0  0  0  0  0  0  0  0  0  0
    4.4203   -2.7958    0.0000 C   0  0  0  0  0  0  0  0  0  0  0  0
    2.9334   -2.5978    0.0000 C   0  0  0  0  0  0  0  0  0  0  0  0
    1.4465   -2.3998    0.0000 C   0  0  0  0  0  0  0  0  0  0  0  0
    0.8746   -1.0131    0.0000 C   0  0  0  0  0  0  0  0  0  0  0  0
   -0.0404   -2.2018    0.0000 C   0  0  0  0  0  0  0  0  0  0  0  0
   -0.6123   -0.8151    0.0000 C   0  0  0  0  0  0  0  0  0  0  0  0
   -1.5272   -2.0038    0.0000 C   0  0  0  0  0  0  0  0  0  0  0  0
   -0.9553   -3.3905    0.0000 O   0  0  0  0  0  0  0  0  0  0  0  0
   -3.0141   -1.8058    0.0000 C   0  0  0  0  0  0  0  0  0  0  0  0
   -3.4197   -2.4920    0.0000 O   0  0  0  0  0  0  0  0  0  0  0  0
   -3.5861   -0.4191    0.0000 C   0  0  0  0  0  0  0  0  0  0  0  0
   -4.4096   -1.6728    0.0000 C   0  0  0  0  0  0  0  0  0  0  0  0
   -5.9071   -1.5865    0.0000 C   0  0  0  0  0  0  0  0  0  0  0  0
   -4.1409   -2.4233    0.0000 O   0  0  0  0  0  0  0  0  0  0  0  0
   -5.0858   -0.4449    0.0000 C   0  0  0  0  0  0  0  0  0  0  0  0
   -6.0411    0.7116    0.0000 O   0  0  0  0  0  0  0  0  0  0  0  0
   -5.7325    2.1795    0.0000 C   0  0  0  0  0  0  0  0  0  0  0  0
   -6.9212    3.0944    0.0000 O   0  0  0  0  0  0  0  0  0  0  0  0
   -4.3925    2.8535    0.0000 C   0  0  0  0  0  0  0  0  0  0  0  0
   -3.0300    2.2260    0.0000 C   0  0  0  0  0  0  0  0  0  0  0  0
   -2.6711    0.7696    0.0000 C   0  0  0  0  0  0  0  0  0  0  0  0
   -1.1843    0.5716    0.0000 C   0  0  0  0  0  0  0  0  0  0  0  0
   -1.7562    1.9582    0.0000 C   0  0  0  0  0  0  0  0  0  0  0  0
   -0.2693    1.7602    0.0000 C   0  0  0  0  0  0  0  0  0  0  0  0
    1.2175    1.5622    0.0000 C   0  0  0  0  0  0  0  0  0  0  0  0
    1.7895    0.1755    0.0000 C   0  0  0  0  0  0  0  0  0  0  0  0
    2.7044    1.3642    0.0000 C   0  0  0  0  0  0  0  0  0  0  0  0
    4.1950    1.5318    0.0000 O   0  0  0  0  0  0  0  0  0  0  0  0
    2.1325    2.7509    0.0000 O   0  0  0  0  0  0  0  0  0  0  0  0
    3.0474    3.9395    0.0000 C   0  0  0  0  0  0  0  0  0  0  0  0
    3.2764   -0.0225    0.0000 C   0  0  0  0  0  0  0  0  0  0  0  0
    4.7632   -0.2205    0.0000 O   0  0  0  0  0  0  0  0  0  0  0  0
    4.1913    1.1662    0.0000 C   0  0  0  0  0  0  0  0  0  0  0  0
  1  2  2  0
  2  3  1  0
  3  4  1  0
  4  5  1  0
  5  6  1  1
  5  7  1  0
  7  8  1  0
  8  9  1  0
  9 10  1  1
  9 11  1  0
 11 12  1  1
 12 13  1  6
 12 14  1  0
 14 15  1  6
 14 16  1  0
 16 17  1  0
 17 18  1  6
 17 19  1  0
 16 20  1  1
 20 21  1  0
 21 22  1  0
 22 23  2  0
 22 24  1  0
 24 25  2  0
 26 25  1  1
 26 27  1  0
 27 28  1  1
 27 29  1  0
 29 30  1  0
 30 31  1  0
 31 32  1  6
 32 33  2  0
 32 34  1  0
 34 35  1  0
 31 36  1  0
 36 37  1  1
 36 38  1  0
 38  2  1  0
 36  5  1  0
 31  9  1  0
 27 11  1  0
 26 16  1  0
M  END
>  <identifier>  (322) 
CNP0228687.1

>  <canonical_smiles>  (322) 
C=C1CC[C@]2(C)CC[C@]3(C)[C@H]4[C@H](O)[C@H](O)[C@@]5([C@@H](C)O)COC(=O)C=C[C@H]5[C@]4(C)CC[C@@]3(C(=O)OC)[C@]2(O)C1

>  <standard_inchi>  (322) 
InChI=1S/C30H44O8/c1-17-9-10-25(3)11-13-27(5)22-21(33)23(34)28(18(2)31)16-38-20(32)8-7-19(28)26(22,4)12-14-29(27,24(35)37-6)30(25,36)15-17/h7-8,18-19,21-23,31,33-34,36H,1,9-16H2,2-6H3/t18-,19+,21+,22+,23+,25-,26+,27-,28-,29+,30+/m1/s1

>  <standard_inchi_key>  (322) 
IBYSPSUANRCDTF-PJFLNFRUSA-N

>  <name>  (322) 
galphimine H

>  <iupac_name>  (322) 
methyl (1~{S},2~{R},5~{R},10~{S},11~{S},14~{S},15~{S},21~{R},22~{R},23~{S})-10,22,23-trihydroxy-21-[(1~{R})-1-hydroxyethyl]-2,5,14-trimethyl-8-methylene-18-oxo-19-oxapentacyclo[12.9.0.0^{2,11}.0^{5,10}.0^{15,21}]tricos-16-ene-11-carboxylate

>  <annotation_level>  (322) 
5

>  <total_atom_count>  (322) 
82

>  <heavy_atom_count>  (322) 
38

>  <molecular_weight>  (322) 
532.67

>  <exact_molecular_weight>  (322) 
532.30362

>  <molecular_formula>  (322) 
C30H44O8

>  <alogp>  (322) 
2.67

>  <topological_polar_surface_area>  (322) 
133.52

>  <rotatable_bond_count>  (322) 
2

>  <hydrogen_bond_acceptors>  (322) 
8

>  <hydrogen_bond_donors>  (322) 
4

>  <hydrogen_bond_acceptors_lipinski>  (322) 
8

>  <hydrogen_bond_donors_lipinski>  (322) 
4

>  <lipinski_rule_of_five_violations>  (322) 
1

>  <aromatic_rings_count>  (322) 
0

>  <qed_drug_likeliness>  (322) 
0.32

>  <formal_charge>  (322) 
0

>  <fractioncsp3>  (322) 
0.80

>  <number_of_minimal_rings>  (322) 
5

>  <van_der_walls_volume>  (322) 
483.98

>  <contains_sugar>  (322) 
False

>  <contains_ring_sugars>  (322) 
False

>  <contains_linear_sugars>  (322) 
False

>  <murcko_framework>  (322) 
O1CC=CC2C(C1)CCC3C2CCC4C5CCCCC5CCC43

>  <np_likeness>  (322) 
3.37

>  <chemical_class>  (322) 
Steroids and steroid derivatives

>  <chemical_sub_class>  (322) 
Hydroxysteroids

>  <chemical_super_class>  (322) 
Lipids and lipid-like molecules

>  <direct_parent_classification>  (322) 
Hydroxysteroids

>  <np_classifier_pathway>  (322) 
Terpenoids

>  <np_classifier_superclass>  (322) 
nan

>  <np_classifier_class>  (322) 
nan

>  <np_classifier_is_glycoside>  (322) 
False

>  <organisms>  (322) 
Galphimia glauca

>  <collections>  (322) 
BIOFACQUIM|Latin America dataset|Super Natural II

>  <dois>  (322) 
10.1021/np0304666

>  <synonyms>  (322) 
CHEMBL516557|Galphimine H

>  <cas>  (322) 
nan

$$$$

     RDKit          2D

 41 45  0  0  0  0  0  0  0  0999 V2000
    6.9218    2.0090    0.0000 C   0  0  0  0  0  0  0  0  0  0  0  0
    5.9206    0.8921    0.0000 C   0  0  0  0  0  0  0  0  0  0  0  0
    6.3873   -0.5334    0.0000 C   0  0  0  0  0  0  0  0  0  0  0  0
    5.3860   -1.6504    0.0000 C   0  0  0  0  0  0  0  0  0  0  0  0
    3.9181   -1.3418    0.0000 C   0  0  0  0  0  0  0  0  0  0  0  0
    4.3848   -2.7673    0.0000 C   0  0  0  0  0  0  0  0  0  0  0  0
    2.9169   -2.4587    0.0000 C   0  0  0  0  0  0  0  0  0  0  0  0
    1.4490   -2.1501    0.0000 C   0  0  0  0  0  0  0  0  0  0  0  0
    0.9823   -0.7245    0.0000 C   0  0  0  0  0  0  0  0  0  0  0  0
   -0.0189   -1.8415    0.0000 C   0  0  0  0  0  0  0  0  0  0  0  0
   -0.4856   -0.4159    0.0000 C   0  0  0  0  0  0  0  0  0  0  0  0
   -1.4868   -1.5329    0.0000 C   0  0  0  0  0  0  0  0  0  0  0  0
   -1.0201   -2.9584    0.0000 O   0  0  0  0  0  0  0  0  0  0  0  0
   -2.0214   -4.0754    0.0000 C   0  0  0  0  0  0  0  0  0  0  0  0
   -1.5547   -5.5009    0.0000 C   0  0  0  0  0  0  0  0  0  0  0  0
   -3.4893   -3.7668    0.0000 O   0  0  0  0  0  0  0  0  0  0  0  0
   -2.9547   -1.2243    0.0000 C   0  0  0  0  0  0  0  0  0  0  0  0
   -3.4105   -1.8783    0.0000 O   0  0  0  0  0  0  0  0  0  0  0  0
   -3.4214    0.2013    0.0000 C   0  0  0  0  0  0  0  0  0  0  0  0
   -4.3364   -0.9873    0.0000 C   0  0  0  0  0  0  0  0  0  0  0  0
   -5.8232   -0.7893    0.0000 C   0  0  0  0  0  0  0  0  0  0  0  0
   -4.1245   -1.7558    0.0000 O   0  0  0  0  0  0  0  0  0  0  0  0
   -4.9189    0.2877    0.0000 C   0  0  0  0  0  0  0  0  0  0  0  0
   -5.7851    1.5123    0.0000 O   0  0  0  0  0  0  0  0  0  0  0  0
   -5.3676    2.9531    0.0000 C   0  0  0  0  0  0  0  0  0  0  0  0
   -6.4846    3.9543    0.0000 O   0  0  0  0  0  0  0  0  0  0  0  0
   -3.9809    3.5250    0.0000 C   0  0  0  0  0  0  0  0  0  0  0  0
   -2.6692    2.7974    0.0000 C   0  0  0  0  0  0  0  0  0  0  0  0
   -2.4202    1.3182    0.0000 C   0  0  0  0  0  0  0  0  0  0  0  0
   -0.9523    1.0096    0.0000 C   0  0  0  0  0  0  0  0  0  0  0  0
   -1.4190    2.4352    0.0000 C   0  0  0  0  0  0  0  0  0  0  0  0
    0.0489    2.1266    0.0000 C   0  0  0  0  0  0  0  0  0  0  0  0
    1.5168    1.8179    0.0000 C   0  0  0  0  0  0  0  0  0  0  0  0
    1.9835    0.3924    0.0000 C   0  0  0  0  0  0  0  0  0  0  0  0
    2.9848    1.5093    0.0000 C   0  0  0  0  0  0  0  0  0  0  0  0
    4.4837    1.5651    0.0000 O   0  0  0  0  0  0  0  0  0  0  0  0
    2.5181    2.9349    0.0000 O   0  0  0  0  0  0  0  0  0  0  0  0
    3.5193    4.0518    0.0000 C   0  0  0  0  0  0  0  0  0  0  0  0
    3.4514    0.0838    0.0000 C   0  0  0  0  0  0  0  0  0  0  0  0
    4.9193   -0.2248    0.0000 O   0  0  0  0  0  0  0  0  0  0  0  0
    4.4527    1.2007    0.0000 C   0  0  0  0  0  0  0  0  0  0  0  0
  1  2  2  0
  2  3  1  0
  3  4  1  0
  4  5  1  0
  5  6  1  1
  5  7  1  0
  7  8  1  0
  8  9  1  0
  9 10  1  1
  9 11  1  0
 11 12  1  1
 12 13  1  6
 13 14  1  0
 14 15  1  0
 14 16  2  0
 12 17  1  0
 17 18  1  6
 17 19  1  0
 19 20  1  0
 20 21  1  6
 20 22  1  0
 19 23  1  1
 23 24  1  0
 24 25  1  0
 25 26  2  0
 25 27  1  0
 27 28  2  0
 29 28  1  1
 29 30  1  0
 30 31  1  1
 30 32  1  0
 32 33  1  0
 33 34  1  0
 34 35  1  6
 35 36  2  0
 35 37  1  0
 37 38  1  0
 34 39  1  0
 39 40  1  1
 39 41  1  0
 41  2  1  0
 39  5  1  0
 34  9  1  0
 30 11  1  0
 29 19  1  0
M  END
>  <identifier>  (323) 
CNP0227373.1

>  <canonical_smiles>  (323) 
C=C1CC[C@]2(C)CC[C@]3(C)[C@H]4[C@H](OC(C)=O)[C@H](O)[C@@]5([C@@H](C)O)COC(=O)C=C[C@H]5[C@]4(C)CC[C@@]3(C(=O)OC)[C@]2(O)C1

>  <standard_inchi>  (323) 
InChI=1S/C32H46O9/c1-18-10-11-27(4)12-14-29(6)24-23(41-20(3)34)25(36)30(19(2)33)17-40-22(35)9-8-21(30)28(24,5)13-15-31(29,26(37)39-7)32(27,38)16-18/h8-9,19,21,23-25,33,36,38H,1,10-17H2,2-7H3/t19-,21+,23+,24+,25+,27-,28+,29-,30-,31+,32+/m1/s1

>  <standard_inchi_key>  (323) 
PLOHJRTXRRLBGH-STODXTIPSA-N

>  <name>  (323) 
galphimine I

>  <iupac_name>  (323) 
methyl (1~{S},2~{R},5~{R},10~{S},11~{S},14~{S},15~{S},21~{R},22~{R},23~{S})-23-acetoxy-10,22-dihydroxy-21-[(1~{R})-1-hydroxyethyl]-2,5,14-trimethyl-8-methylene-18-oxo-19-oxapentacyclo[12.9.0.0^{2,11}.0^{5,10}.0^{15,21}]tricos-16-ene-11-carboxylate

>  <annotation_level>  (323) 
5

>  <total_atom_count>  (323) 
87

>  <heavy_atom_count>  (323) 
41

>  <molecular_weight>  (323) 
574.71

>  <exact_molecular_weight>  (323) 
574.31418

>  <molecular_formula>  (323) 
C32H46O9

>  <alogp>  (323) 
3.24

>  <topological_polar_surface_area>  (323) 
139.59

>  <rotatable_bond_count>  (323) 
3

>  <hydrogen_bond_acceptors>  (323) 
9

>  <hydrogen_bond_donors>  (323) 
3

>  <hydrogen_bond_acceptors_lipinski>  (323) 
9

>  <hydrogen_bond_donors_lipinski>  (323) 
3

>  <lipinski_rule_of_five_violations>  (323) 
1

>  <aromatic_rings_count>  (323) 
0

>  <qed_drug_likeliness>  (323) 
0.26

>  <formal_charge>  (323) 
0

>  <fractioncsp3>  (323) 
0.78

>  <number_of_minimal_rings>  (323) 
5

>  <van_der_walls_volume>  (323) 
523.01

>  <contains_sugar>  (323) 
False

>  <contains_ring_sugars>  (323) 
False

>  <contains_linear_sugars>  (323) 
False

>  <murcko_framework>  (323) 
O1CC=CC2C(C1)CCC3C2CCC4C5CCCCC5CCC43

>  <np_likeness>  (323) 
3.35

>  <chemical_class>  (323) 
Steroids and steroid derivatives

>  <chemical_sub_class>  (323) 
Hydroxysteroids

>  <chemical_super_class>  (323) 
Lipids and lipid-like molecules

>  <direct_parent_classification>  (323) 
Hydroxysteroids

>  <np_classifier_pathway>  (323) 
Terpenoids

>  <np_classifier_superclass>  (323) 
Triterpenoids

>  <np_classifier_class>  (323) 
Friedelane triterpenoids

>  <np_classifier_is_glycoside>  (323) 
False

>  <organisms>  (323) 
Galphimia glauca

>  <collections>  (323) 
BIOFACQUIM|Latin America dataset|Super Natural II

>  <dois>  (323) 
10.1021/np0304666

>  <synonyms>  (323) 
CHEMBL453168|Galphimine I

>  <cas>  (323) 
nan

$$$$

     RDKit          2D

 22 23  0  0  0  0  0  0  0  0999 V2000
   11.2338   -0.9796    0.0000 C   0  0  0  0  0  0  0  0  0  0  0  0
   10.0048   -0.1196    0.0000 C   0  0  0  0  0  0  0  0  0  0  0  0
   10.1351    1.3747    0.0000 O   0  0  0  0  0  0  0  0  0  0  0  0
    8.6455   -0.7539    0.0000 C   0  0  0  0  0  0  0  0  0  0  0  0
    7.4166    0.1061    0.0000 C   0  0  0  0  0  0  0  0  0  0  0  0
    6.0573   -0.5282    0.0000 C   0  0  0  0  0  0  0  0  0  0  0  0
    4.8283    0.3318    0.0000 C   0  0  0  0  0  0  0  0  0  0  0  0
    3.4690   -0.3025    0.0000 C   0  0  0  0  0  0  0  0  0  0  0  0
    2.2401    0.5575    0.0000 C   0  0  0  0  0  0  0  0  0  0  0  0
    0.8808   -0.0768    0.0000 C   0  0  0  0  0  0  0  0  0  0  0  0
   -0.3482    0.7832    0.0000 C   0  0  0  0  0  0  0  0  0  0  0  0
   -1.7075    0.1489    0.0000 C   0  0  0  0  0  0  0  0  0  0  0  0
   -2.9364    1.0089    0.0000 C   0  0  0  0  0  0  0  0  0  0  0  0
   -4.2957    0.3746    0.0000 C   0  0  0  0  0  0  0  0  0  0  0  0
   -4.4260   -1.1197    0.0000 C   0  0  0  0  0  0  0  0  0  0  0  0
   -5.7853   -1.7540    0.0000 C   0  0  0  0  0  0  0  0  0  0  0  0
   -7.0143   -0.8940    0.0000 C   0  0  0  0  0  0  0  0  0  0  0  0
   -8.4757   -1.2319    0.0000 O   0  0  0  0  0  0  0  0  0  0  0  0
   -9.2487    0.0537    0.0000 C   0  0  0  0  0  0  0  0  0  0  0  0
   -8.2649    1.1860    0.0000 O   0  0  0  0  0  0  0  0  0  0  0  0
   -6.8840    0.6003    0.0000 C   0  0  0  0  0  0  0  0  0  0  0  0
   -5.5247    1.2346    0.0000 C   0  0  0  0  0  0  0  0  0  0  0  0
  1  2  1  0
  2  3  2  0
  2  4  1  0
  4  5  1  0
  5  6  1  0
  6  7  1  0
  7  8  1  0
  8  9  1  0
  9 10  1  0
 10 11  1  0
 11 12  1  0
 12 13  1  0
 13 14  1  0
 14 15  2  0
 15 16  1  0
 16 17  2  0
 17 18  1  0
 18 19  1  0
 19 20  1  0
 20 21  1  0
 21 22  2  0
 22 14  1  0
 21 17  1  0
M  END
>  <identifier>  (324) 
CNP0203992.0

>  <canonical_smiles>  (324) 
CC(=O)CCCCCCCCCCC1=CC=C2OCOC2=C1

>  <standard_inchi>  (324) 
InChI=1S/C19H28O3/c1-16(20)10-8-6-4-2-3-5-7-9-11-17-12-13-18-19(14-17)22-15-21-18/h12-14H,2-11,15H2,1H3

>  <standard_inchi_key>  (324) 
XKYCRRQKLLZDJB-UHFFFAOYSA-N

>  <name>  (324) 
2-Dodecanone, 12-(1,3-benzodioxol-5-yl)-

>  <iupac_name>  (324) 
12-(1,3-benzodioxol-5-yl)dodecan-2-one

>  <annotation_level>  (324) 
5

>  <total_atom_count>  (324) 
50

>  <heavy_atom_count>  (324) 
22

>  <molecular_weight>  (324) 
304.43

>  <exact_molecular_weight>  (324) 
304.20384

>  <molecular_formula>  (324) 
C19H28O3

>  <alogp>  (324) 
5.06

>  <topological_polar_surface_area>  (324) 
35.53

>  <rotatable_bond_count>  (324) 
11

>  <hydrogen_bond_acceptors>  (324) 
3

>  <hydrogen_bond_donors>  (324) 
0

>  <hydrogen_bond_acceptors_lipinski>  (324) 
3

>  <hydrogen_bond_donors_lipinski>  (324) 
0

>  <lipinski_rule_of_five_violations>  (324) 
1

>  <aromatic_rings_count>  (324) 
1

>  <qed_drug_likeliness>  (324) 
0.54

>  <formal_charge>  (324) 
0

>  <fractioncsp3>  (324) 
0.63

>  <number_of_minimal_rings>  (324) 
2

>  <van_der_walls_volume>  (324) 
310.05

>  <contains_sugar>  (324) 
False

>  <contains_ring_sugars>  (324) 
False

>  <contains_linear_sugars>  (324) 
False

>  <murcko_framework>  (324) 
O1c2ccccc2OC1

>  <np_likeness>  (324) 
0.39

>  <chemical_class>  (324) 
Benzodioxoles

>  <chemical_sub_class>  (324) 
Benzodioxoles

>  <chemical_super_class>  (324) 
Organoheterocyclic compounds

>  <direct_parent_classification>  (324) 
Benzodioxoles

>  <np_classifier_pathway>  (324) 
nan

>  <np_classifier_superclass>  (324) 
nan

>  <np_classifier_class>  (324) 
nan

>  <np_classifier_is_glycoside>  (324) 
False

>  <organisms>  (324) 
Piper sanctum

>  <collections>  (324) 
BIOFACQUIM|Latin America dataset|UNPD (Universal Natural Products Database)

>  <dois>  (324) 
10.1021/np0401260

>  <synonyms>  (324) 
828263-02-1|DTXSID00457732|2-Oxo-12-(3' 4'-methylenedioxyphenyl)dodecane

>  <cas>  (324) 
828263-02-1

$$$$

     RDKit          2D

 24 25  0  0  0  0  0  0  0  0999 V2000
   12.6279   -0.9588    0.0000 C   0  0  0  0  0  0  0  0  0  0  0  0
   11.3873   -0.1157    0.0000 C   0  0  0  0  0  0  0  0  0  0  0  0
   11.4971    1.3803    0.0000 O   0  0  0  0  0  0  0  0  0  0  0  0
   10.0368   -0.7685    0.0000 C   0  0  0  0  0  0  0  0  0  0  0  0
    8.7962    0.0746    0.0000 C   0  0  0  0  0  0  0  0  0  0  0  0
    7.4457   -0.5782    0.0000 C   0  0  0  0  0  0  0  0  0  0  0  0
    6.2051    0.2649    0.0000 C   0  0  0  0  0  0  0  0  0  0  0  0
    4.8546   -0.3879    0.0000 C   0  0  0  0  0  0  0  0  0  0  0  0
    3.6140    0.4553    0.0000 C   0  0  0  0  0  0  0  0  0  0  0  0
    2.2635   -0.1976    0.0000 C   0  0  0  0  0  0  0  0  0  0  0  0
    1.0229    0.6456    0.0000 C   0  0  0  0  0  0  0  0  0  0  0  0
   -0.3276   -0.0073    0.0000 C   0  0  0  0  0  0  0  0  0  0  0  0
   -1.5682    0.8359    0.0000 C   0  0  0  0  0  0  0  0  0  0  0  0
   -2.9187    0.1830    0.0000 C   0  0  0  0  0  0  0  0  0  0  0  0
   -4.1593    1.0262    0.0000 C   0  0  0  0  0  0  0  0  0  0  0  0
   -5.5098    0.3733    0.0000 C   0  0  0  0  0  0  0  0  0  0  0  0
   -5.6197   -1.1226    0.0000 C   0  0  0  0  0  0  0  0  0  0  0  0
   -6.9702   -1.7755    0.0000 C   0  0  0  0  0  0  0  0  0  0  0  0
   -8.2108   -0.9323    0.0000 C   0  0  0  0  0  0  0  0  0  0  0  0
   -9.6675   -1.2901    0.0000 O   0  0  0  0  0  0  0  0  0  0  0  0
  -10.4579   -0.0153    0.0000 C   0  0  0  0  0  0  0  0  0  0  0  0
   -9.4897    1.1304    0.0000 O   0  0  0  0  0  0  0  0  0  0  0  0
   -8.1009    0.5636    0.0000 C   0  0  0  0  0  0  0  0  0  0  0  0
   -6.7504    1.2165    0.0000 C   0  0  0  0  0  0  0  0  0  0  0  0
  1  2  1  0
  2  3  2  0
  2  4  1  0
  4  5  1  0
  5  6  1  0
  6  7  1  0
  7  8  1  0
  8  9  1  0
  9 10  1  0
 10 11  1  0
 11 12  1  0
 12 13  1  0
 13 14  1  0
 14 15  1  0
 15 16  1  0
 16 17  2  0
 17 18  1  0
 18 19  2  0
 19 20  1  0
 20 21  1  0
 21 22  1  0
 22 23  1  0
 23 24  2  0
 24 16  1  0
 23 19  1  0
M  END
>  <identifier>  (325) 
CNP0121907.0

>  <canonical_smiles>  (325) 
CC(=O)CCCCCCCCCCCCC1=CC=C2OCOC2=C1

>  <standard_inchi>  (325) 
InChI=1S/C21H32O3/c1-18(22)12-10-8-6-4-2-3-5-7-9-11-13-19-14-15-20-21(16-19)24-17-23-20/h14-16H,2-13,17H2,1H3

>  <standard_inchi_key>  (325) 
WESJGASUMOLVBD-UHFFFAOYSA-N

>  <name>  (325) 
2-Tetradecanone, 14-(1,3-benzodioxol-5-yl)-

>  <iupac_name>  (325) 
14-(1,3-benzodioxol-5-yl)tetradecan-2-one

>  <annotation_level>  (325) 
5

>  <total_atom_count>  (325) 
56

>  <heavy_atom_count>  (325) 
24

>  <molecular_weight>  (325) 
332.48

>  <exact_molecular_weight>  (325) 
332.23514

>  <molecular_formula>  (325) 
C21H32O3

>  <alogp>  (325) 
5.84

>  <topological_polar_surface_area>  (325) 
35.53

>  <rotatable_bond_count>  (325) 
13

>  <hydrogen_bond_acceptors>  (325) 
3

>  <hydrogen_bond_donors>  (325) 
0

>  <hydrogen_bond_acceptors_lipinski>  (325) 
3

>  <hydrogen_bond_donors_lipinski>  (325) 
0

>  <lipinski_rule_of_five_violations>  (325) 
1

>  <aromatic_rings_count>  (325) 
1

>  <qed_drug_likeliness>  (325) 
0.43

>  <formal_charge>  (325) 
0

>  <fractioncsp3>  (325) 
0.67

>  <number_of_minimal_rings>  (325) 
2

>  <van_der_walls_volume>  (325) 
343.38

>  <contains_sugar>  (325) 
False

>  <contains_ring_sugars>  (325) 
False

>  <contains_linear_sugars>  (325) 
False

>  <murcko_framework>  (325) 
O1c2ccccc2OC1

>  <np_likeness>  (325) 
0.36

>  <chemical_class>  (325) 
Benzodioxoles

>  <chemical_sub_class>  (325) 
Benzodioxoles

>  <chemical_super_class>  (325) 
Organoheterocyclic compounds

>  <direct_parent_classification>  (325) 
Benzodioxoles

>  <np_classifier_pathway>  (325) 
Polyketides

>  <np_classifier_superclass>  (325) 
nan

>  <np_classifier_class>  (325) 
nan

>  <np_classifier_is_glycoside>  (325) 
False

>  <organisms>  (325) 
Piper sanctum

>  <collections>  (325) 
BIOFACQUIM|Latin America dataset|UNPD (Universal Natural Products Database)

>  <dois>  (325) 
10.1021/np0401260

>  <synonyms>  (325) 
828263-04-3|DTXSID10462458|2-Oxo-14-(3' 4'-methylenedioxyphenyl)tetradecane

>  <cas>  (325) 
828263-04-3

$$$$

     RDKit          2D

 37 41  0  0  0  0  0  0  0  0999 V2000
    2.9241   -3.9950    0.0000 C   0  0  0  0  0  0  0  0  0  0  0  0
    2.0407   -2.7828    0.0000 O   0  0  0  0  0  0  0  0  0  0  0  0
    2.6487   -1.4116    0.0000 C   0  0  0  0  0  0  0  0  0  0  0  0
    3.4383   -1.5214    0.0000 O   0  0  0  0  0  0  0  0  0  0  0  0
    1.7653   -0.1993    0.0000 C   0  0  0  0  0  0  0  0  0  0  0  0
    1.1572   -1.5705    0.0000 C   0  0  0  0  0  0  0  0  0  0  0  0
   -0.3344   -1.7295    0.0000 C   0  0  0  0  0  0  0  0  0  0  0  0
   -1.2178   -0.5173    0.0000 C   0  0  0  0  0  0  0  0  0  0  0  0
   -1.8259   -1.8885    0.0000 C   0  0  0  0  0  0  0  0  0  0  0  0
   -2.7094   -0.6763    0.0000 C   0  0  0  0  0  0  0  0  0  0  0  0
   -3.1063   -2.1228    0.0000 C   0  0  0  0  0  0  0  0  0  0  0  0
   -4.4847   -2.7144    0.0000 C   0  0  0  0  0  0  0  0  0  0  0  0
   -5.8067   -2.0055    0.0000 C   0  0  0  0  0  0  0  0  0  0  0  0
   -7.0189   -2.8890    0.0000 O   0  0  0  0  0  0  0  0  0  0  0  0
   -6.0767   -0.5300    0.0000 O   0  0  0  0  0  0  0  0  0  0  0  0
   -5.0914    0.6010    0.0000 C   0  0  0  0  0  0  0  0  0  0  0  0
   -3.5928    0.5359    0.0000 C   0  0  0  0  0  0  0  0  0  0  0  0
   -4.3832    1.8108    0.0000 C   0  0  0  0  0  0  0  0  0  0  0  0
   -3.6744    3.1327    0.0000 C   0  0  0  0  0  0  0  0  0  0  0  0
   -5.8825    1.7637    0.0000 O   0  0  0  0  0  0  0  0  0  0  0  0
   -2.9847    1.9071    0.0000 C   0  0  0  0  0  0  0  0  0  0  0  0
   -1.4932    2.0661    0.0000 C   0  0  0  0  0  0  0  0  0  0  0  0
   -0.8851    3.4374    0.0000 O   0  0  0  0  0  0  0  0  0  0  0  0
   -0.6097    0.8539    0.0000 C   0  0  0  0  0  0  0  0  0  0  0  0
    0.8818    1.0129    0.0000 C   0  0  0  0  0  0  0  0  0  0  0  0
   -0.0016    2.2251    0.0000 C   0  0  0  0  0  0  0  0  0  0  0  0
    1.4899    2.3841    0.0000 C   0  0  0  0  0  0  0  0  0  0  0  0
    2.9815    2.5431    0.0000 C   0  0  0  0  0  0  0  0  0  0  0  0
    3.8649    1.3309    0.0000 C   0  0  0  0  0  0  0  0  0  0  0  0
    4.4730    2.7021    0.0000 C   0  0  0  0  0  0  0  0  0  0  0  0
    5.3565    1.4899    0.0000 C   0  0  0  0  0  0  0  0  0  0  0  0
    6.2399    0.2776    0.0000 C   0  0  0  0  0  0  0  0  0  0  0  0
    5.6318   -1.0936    0.0000 C   0  0  0  0  0  0  0  0  0  0  0  0
    6.5153   -2.3058    0.0000 C   0  0  0  0  0  0  0  0  0  0  0  0
    4.1403   -1.2526    0.0000 C   0  0  0  0  0  0  0  0  0  0  0  0
    3.2568   -0.0403    0.0000 C   0  0  0  0  0  0  0  0  0  0  0  0
    2.3734    1.1719    0.0000 O   0  0  0  0  0  0  0  0  0  0  0  0
  1  2  1  0
  2  3  1  0
  3  4  2  0
  5  3  1  1
  5  6  1  0
  6  7  1  0
  7  8  1  0
  8  9  1  6
  8 10  1  0
 10 11  1  6
 11 12  2  0
 12 13  1  0
 13 14  2  0
 13 15  1  0
 15 16  1  0
 17 16  1  6
 17 18  1  0
 18 19  1  6
 18 20  1  0
 17 21  1  0
 21 22  1  0
 22 23  1  1
 24 22  1  6
 24 25  1  0
 25 26  1  6
 25 27  1  0
 27 28  1  0
 28 29  1  0
 29 30  1  6
 29 31  1  0
 31 32  1  0
 32 33  1  0
 33 34  1  0
 33 35  2  0
 35 36  1  0
 36 37  1  6
 25  5  1  0
 36 29  1  0
 36  5  1  0
 24  8  1  0
 17 10  1  0
M  END
>  <identifier>  (326) 
CNP0149437.1

>  <canonical_smiles>  (326) 
COC(=O)[C@@]12CC[C@@]3(C)[C@@H]4C=CC(=O)OC[C@]4([C@@H](C)O)C[C@@H](O)[C@@H]3[C@@]1(C)CC[C@@]1(C)CCC(C)=C[C@]12O

>  <standard_inchi>  (326) 
InChI=1S/C30H44O7/c1-18-9-10-25(3)11-13-27(5)23-20(32)16-28(19(2)31)17-37-22(33)8-7-21(28)26(23,4)12-14-29(27,24(34)36-6)30(25,35)15-18/h7-8,15,19-21,23,31-32,35H,9-14,16-17H2,1-6H3/t19-,20-,21+,23+,25-,26+,27-,28+,29+,30+/m1/s1

>  <standard_inchi_key>  (326) 
KBMOWKVFQHQUFB-NHBPQBDCSA-N

>  <name>  (326) 
galphimine C

>  <iupac_name>  (326) 
methyl (1~{S},2~{R},5~{R},10~{S},11~{S},14~{S},15~{S},21~{S},23~{R})-10,23-dihydroxy-21-[(1~{R})-1-hydroxyethyl]-2,5,8,14-tetramethyl-18-oxo-19-oxapentacyclo[12.9.0.0^{2,11}.0^{5,10}.0^{15,21}]tricosa-8,16-diene-11-carboxylate

>  <annotation_level>  (326) 
5

>  <total_atom_count>  (326) 
81

>  <heavy_atom_count>  (326) 
37

>  <molecular_weight>  (326) 
516.68

>  <exact_molecular_weight>  (326) 
516.3087

>  <molecular_formula>  (326) 
C30H44O7

>  <alogp>  (326) 
3.70

>  <topological_polar_surface_area>  (326) 
113.29

>  <rotatable_bond_count>  (326) 
2

>  <hydrogen_bond_acceptors>  (326) 
7

>  <hydrogen_bond_donors>  (326) 
3

>  <hydrogen_bond_acceptors_lipinski>  (326) 
7

>  <hydrogen_bond_donors_lipinski>  (326) 
3

>  <lipinski_rule_of_five_violations>  (326) 
1

>  <aromatic_rings_count>  (326) 
0

>  <qed_drug_likeliness>  (326) 
0.38

>  <formal_charge>  (326) 
0

>  <fractioncsp3>  (326) 
0.80

>  <number_of_minimal_rings>  (326) 
5

>  <van_der_walls_volume>  (326) 
478.84

>  <contains_sugar>  (326) 
False

>  <contains_ring_sugars>  (326) 
False

>  <contains_linear_sugars>  (326) 
False

>  <murcko_framework>  (326) 
O1CC=CC2C(C1)CCC3C2CCC4C5C=CCCC5CCC43

>  <np_likeness>  (326) 
3.23

>  <chemical_class>  (326) 
Steroids and steroid derivatives

>  <chemical_sub_class>  (326) 
Hydroxysteroids

>  <chemical_super_class>  (326) 
Lipids and lipid-like molecules

>  <direct_parent_classification>  (326) 
Hydroxysteroids

>  <np_classifier_pathway>  (326) 
Terpenoids

>  <np_classifier_superclass>  (326) 
Triterpenoids

>  <np_classifier_class>  (326) 
Friedelane triterpenoids

>  <np_classifier_is_glycoside>  (326) 
False

>  <organisms>  (326) 
Galphimia glauca

>  <collections>  (326) 
BIOFACQUIM|Latin America dataset|NPASS|Super Natural II

>  <dois>  (326) 
10.1021/np0304666

>  <synonyms>  (326) 
CHEMBL463494|Galphimine C

>  <cas>  (326) 
nan

$$$$

     RDKit          2D

 26 27  0  0  0  0  0  0  0  0999 V2000
   14.0070   -0.9378    0.0000 C   0  0  0  0  0  0  0  0  0  0  0  0
   12.7576   -0.1078    0.0000 C   0  0  0  0  0  0  0  0  0  0  0  0
   12.8516    1.3892    0.0000 O   0  0  0  0  0  0  0  0  0  0  0  0
   11.4141   -0.7749    0.0000 C   0  0  0  0  0  0  0  0  0  0  0  0
   10.1646    0.0551    0.0000 C   0  0  0  0  0  0  0  0  0  0  0  0
    8.8211   -0.6120    0.0000 C   0  0  0  0  0  0  0  0  0  0  0  0
    7.5716    0.2180    0.0000 C   0  0  0  0  0  0  0  0  0  0  0  0
    6.2281   -0.4491    0.0000 C   0  0  0  0  0  0  0  0  0  0  0  0
    4.9787    0.3809    0.0000 C   0  0  0  0  0  0  0  0  0  0  0  0
    3.6352   -0.2862    0.0000 C   0  0  0  0  0  0  0  0  0  0  0  0
    2.3857    0.5438    0.0000 C   0  0  0  0  0  0  0  0  0  0  0  0
    1.0422   -0.1233    0.0000 C   0  0  0  0  0  0  0  0  0  0  0  0
   -0.2072    0.7067    0.0000 C   0  0  0  0  0  0  0  0  0  0  0  0
   -1.5508    0.0396    0.0000 C   0  0  0  0  0  0  0  0  0  0  0  0
   -2.8002    0.8696    0.0000 C   0  0  0  0  0  0  0  0  0  0  0  0
   -4.1437    0.2025    0.0000 C   0  0  0  0  0  0  0  0  0  0  0  0
   -5.3932    1.0325    0.0000 C   0  0  0  0  0  0  0  0  0  0  0  0
   -6.7367    0.3654    0.0000 C   0  0  0  0  0  0  0  0  0  0  0  0
   -6.8307   -1.1316    0.0000 C   0  0  0  0  0  0  0  0  0  0  0  0
   -8.1742   -1.7987    0.0000 C   0  0  0  0  0  0  0  0  0  0  0  0
   -9.4237   -0.9687    0.0000 C   0  0  0  0  0  0  0  0  0  0  0  0
  -10.8765   -1.3419    0.0000 O   0  0  0  0  0  0  0  0  0  0  0  0
  -11.6804   -0.0755    0.0000 C   0  0  0  0  0  0  0  0  0  0  0  0
  -10.7244    1.0804    0.0000 O   0  0  0  0  0  0  0  0  0  0  0  0
   -9.3296    0.5283    0.0000 C   0  0  0  0  0  0  0  0  0  0  0  0
   -7.9861    1.1954    0.0000 C   0  0  0  0  0  0  0  0  0  0  0  0
  1  2  1  0
  2  3  2  0
  2  4  1  0
  4  5  1  0
  5  6  1  0
  6  7  1  0
  7  8  1  0
  8  9  1  0
  9 10  1  0
 10 11  1  0
 11 12  1  0
 12 13  1  0
 13 14  1  0
 14 15  1  0
 15 16  1  0
 16 17  1  0
 17 18  1  0
 18 19  2  0
 19 20  1  0
 20 21  2  0
 21 22  1  0
 22 23  1  0
 23 24  1  0
 24 25  1  0
 25 26  2  0
 26 18  1  0
 25 21  1  0
M  END
>  <identifier>  (327) 
CNP0159391.0

>  <canonical_smiles>  (327) 
CC(=O)CCCCCCCCCCCCCCC1=CC=C2OCOC2=C1

>  <standard_inchi>  (327) 
InChI=1S/C23H36O3/c1-20(24)14-12-10-8-6-4-2-3-5-7-9-11-13-15-21-16-17-22-23(18-21)26-19-25-22/h16-18H,2-15,19H2,1H3

>  <standard_inchi_key>  (327) 
OHKYJRJHRQFHDW-UHFFFAOYSA-N

>  <name>  (327) 
16-(1,3-benzodioxol-5-yl)hexadecan-2-one

>  <iupac_name>  (327) 
16-(1,3-benzodioxol-5-yl)hexadecan-2-one

>  <annotation_level>  (327) 
5

>  <total_atom_count>  (327) 
62

>  <heavy_atom_count>  (327) 
26

>  <molecular_weight>  (327) 
360.54

>  <exact_molecular_weight>  (327) 
360.26645

>  <molecular_formula>  (327) 
C23H36O3

>  <alogp>  (327) 
6.62

>  <topological_polar_surface_area>  (327) 
35.53

>  <rotatable_bond_count>  (327) 
15

>  <hydrogen_bond_acceptors>  (327) 
3

>  <hydrogen_bond_donors>  (327) 
0

>  <hydrogen_bond_acceptors_lipinski>  (327) 
3

>  <hydrogen_bond_donors_lipinski>  (327) 
0

>  <lipinski_rule_of_five_violations>  (327) 
1

>  <aromatic_rings_count>  (327) 
1

>  <qed_drug_likeliness>  (327) 
0.33

>  <formal_charge>  (327) 
0

>  <fractioncsp3>  (327) 
0.70

>  <number_of_minimal_rings>  (327) 
2

>  <van_der_walls_volume>  (327) 
376.15

>  <contains_sugar>  (327) 
False

>  <contains_ring_sugars>  (327) 
False

>  <contains_linear_sugars>  (327) 
False

>  <murcko_framework>  (327) 
O1c2ccccc2OC1

>  <np_likeness>  (327) 
0.33

>  <chemical_class>  (327) 
Benzodioxoles

>  <chemical_sub_class>  (327) 
Benzodioxoles

>  <chemical_super_class>  (327) 
Organoheterocyclic compounds

>  <direct_parent_classification>  (327) 
Benzodioxoles

>  <np_classifier_pathway>  (327) 
Polyketides

>  <np_classifier_superclass>  (327) 
nan

>  <np_classifier_class>  (327) 
nan

>  <np_classifier_is_glycoside>  (327) 
False

>  <organisms>  (327) 
Piper sanctum

>  <collections>  (327) 
BIOFACQUIM|Latin America dataset|UNPD (Universal Natural Products Database)

>  <dois>  (327) 
10.1021/np0401260

>  <synonyms>  (327) 
828263-08-7|DTXSID60414947|2-Oxo-16-(3' 4'-methylenedioxyphenyl)hexadecane

>  <cas>  (327) 
828263-08-7

$$$$

     RDKit          2D

 28 29  0  0  0  0  0  0  0  0999 V2000
   15.3745   -0.9174    0.0000 C   0  0  0  0  0  0  0  0  0  0  0  0
   14.1182   -0.0979    0.0000 C   0  0  0  0  0  0  0  0  0  0  0  0
   14.1997    1.3999    0.0000 O   0  0  0  0  0  0  0  0  0  0  0  0
   12.7803   -0.7761    0.0000 C   0  0  0  0  0  0  0  0  0  0  0  0
   11.5239    0.0434    0.0000 C   0  0  0  0  0  0  0  0  0  0  0  0
   10.1860   -0.6349    0.0000 C   0  0  0  0  0  0  0  0  0  0  0  0
    8.9297    0.1846    0.0000 C   0  0  0  0  0  0  0  0  0  0  0  0
    7.5918   -0.4937    0.0000 C   0  0  0  0  0  0  0  0  0  0  0  0
    6.3354    0.3258    0.0000 C   0  0  0  0  0  0  0  0  0  0  0  0
    4.9976   -0.3525    0.0000 C   0  0  0  0  0  0  0  0  0  0  0  0
    3.7412    0.4670    0.0000 C   0  0  0  0  0  0  0  0  0  0  0  0
    2.4033   -0.2113    0.0000 C   0  0  0  0  0  0  0  0  0  0  0  0
    1.1470    0.6082    0.0000 C   0  0  0  0  0  0  0  0  0  0  0  0
   -0.1909   -0.0701    0.0000 C   0  0  0  0  0  0  0  0  0  0  0  0
   -1.4473    0.7494    0.0000 C   0  0  0  0  0  0  0  0  0  0  0  0
   -2.7851    0.0711    0.0000 C   0  0  0  0  0  0  0  0  0  0  0  0
   -4.0415    0.8906    0.0000 C   0  0  0  0  0  0  0  0  0  0  0  0
   -5.3794    0.2123    0.0000 C   0  0  0  0  0  0  0  0  0  0  0  0
   -6.6357    1.0318    0.0000 C   0  0  0  0  0  0  0  0  0  0  0  0
   -7.9736    0.3536    0.0000 C   0  0  0  0  0  0  0  0  0  0  0  0
   -8.0551   -1.1442    0.0000 C   0  0  0  0  0  0  0  0  0  0  0  0
   -9.3930   -1.8225    0.0000 C   0  0  0  0  0  0  0  0  0  0  0  0
  -10.6494   -1.0030    0.0000 C   0  0  0  0  0  0  0  0  0  0  0  0
  -12.0991   -1.3883    0.0000 O   0  0  0  0  0  0  0  0  0  0  0  0
  -12.9135   -0.1287    0.0000 C   0  0  0  0  0  0  0  0  0  0  0  0
  -11.9671    1.0351    0.0000 O   0  0  0  0  0  0  0  0  0  0  0  0
  -10.5679    0.4948    0.0000 C   0  0  0  0  0  0  0  0  0  0  0  0
   -9.2300    1.1731    0.0000 C   0  0  0  0  0  0  0  0  0  0  0  0
  1  2  1  0
  2  3  2  0
  2  4  1  0
  4  5  1  0
  5  6  1  0
  6  7  1  0
  7  8  1  0
  8  9  1  0
  9 10  1  0
 10 11  1  0
 11 12  1  0
 12 13  1  0
 13 14  1  0
 14 15  1  0
 15 16  1  0
 16 17  1  0
 17 18  1  0
 18 19  1  0
 19 20  1  0
 20 21  2  0
 21 22  1  0
 22 23  2  0
 23 24  1  0
 24 25  1  0
 25 26  1  0
 26 27  1  0
 27 28  2  0
 28 20  1  0
 27 23  1  0
M  END
>  <identifier>  (328) 
CNP0134657.0

>  <canonical_smiles>  (328) 
CC(=O)CCCCCCCCCCCCCCCCC1=CC=C2OCOC2=C1

>  <standard_inchi>  (328) 
InChI=1S/C25H40O3/c1-22(26)16-14-12-10-8-6-4-2-3-5-7-9-11-13-15-17-23-18-19-24-25(20-23)28-21-27-24/h18-20H,2-17,21H2,1H3

>  <standard_inchi_key>  (328) 
SVTYLQARFHCNGC-UHFFFAOYSA-N

>  <name>  (328) 
2-Octadecanone, 18-(1,3-benzodioxol-5-yl)-

>  <iupac_name>  (328) 
18-(1,3-benzodioxol-5-yl)octadecan-2-one

>  <annotation_level>  (328) 
5

>  <total_atom_count>  (328) 
68

>  <heavy_atom_count>  (328) 
28

>  <molecular_weight>  (328) 
388.59

>  <exact_molecular_weight>  (328) 
388.29775

>  <molecular_formula>  (328) 
C25H40O3

>  <alogp>  (328) 
7.40

>  <topological_polar_surface_area>  (328) 
35.53

>  <rotatable_bond_count>  (328) 
17

>  <hydrogen_bond_acceptors>  (328) 
3

>  <hydrogen_bond_donors>  (328) 
0

>  <hydrogen_bond_acceptors_lipinski>  (328) 
3

>  <hydrogen_bond_donors_lipinski>  (328) 
0

>  <lipinski_rule_of_five_violations>  (328) 
1

>  <aromatic_rings_count>  (328) 
1

>  <qed_drug_likeliness>  (328) 
0.26

>  <formal_charge>  (328) 
0

>  <fractioncsp3>  (328) 
0.72

>  <number_of_minimal_rings>  (328) 
2

>  <van_der_walls_volume>  (328) 
408.21

>  <contains_sugar>  (328) 
False

>  <contains_ring_sugars>  (328) 
False

>  <contains_linear_sugars>  (328) 
False

>  <murcko_framework>  (328) 
O1c2ccccc2OC1

>  <np_likeness>  (328) 
0.31

>  <chemical_class>  (328) 
Benzodioxoles

>  <chemical_sub_class>  (328) 
Benzodioxoles

>  <chemical_super_class>  (328) 
Organoheterocyclic compounds

>  <direct_parent_classification>  (328) 
Benzodioxoles

>  <np_classifier_pathway>  (328) 
Polyketides

>  <np_classifier_superclass>  (328) 
nan

>  <np_classifier_class>  (328) 
nan

>  <np_classifier_is_glycoside>  (328) 
False

>  <organisms>  (328) 
Piper sanctum

>  <collections>  (328) 
BIOFACQUIM|Latin America dataset|UNPD (Universal Natural Products Database)

>  <dois>  (328) 
10.1021/np0401260

>  <synonyms>  (328) 
828263-12-3|DTXSID50463202|2-Oxo-18-(3' 4'-methylenedioxyphenyl)octadecane

>  <cas>  (328) 
828263-12-3

$$$$

     RDKit          2D

 31 35  0  0  0  0  0  0  0  0999 V2000
    1.1257   -4.0555    0.0000 C   0  0  0  0  0  0  0  0  0  0  0  0
    0.3534   -2.7697    0.0000 C   0  0  0  0  0  0  0  0  0  0  0  0
    1.0808   -1.4579    0.0000 C   0  0  0  0  0  0  0  0  0  0  0  0
    2.3926   -2.1853    0.0000 C   0  0  0  0  0  0  0  0  0  0  0  0
   -0.2231   -1.1083    0.0000 C   0  0  0  0  0  0  0  0  0  0  0  0
    1.8083   -0.1461    0.0000 C   0  0  0  0  0  0  0  0  0  0  0  0
    2.8311   -1.2433    0.0000 N   0  0  0  0  0  0  0  0  0  0  0  0
    4.1906   -0.6096    0.0000 C   0  0  0  0  0  0  0  0  0  0  0  0
    5.5713   -1.1959    0.0000 C   0  0  0  0  0  0  0  0  0  0  0  0
    6.7694   -0.2934    0.0000 C   0  0  0  0  0  0  0  0  0  0  0  0
    6.5869    1.1955    0.0000 C   0  0  0  0  0  0  0  0  0  0  0  0
    5.2062    1.7818    0.0000 C   0  0  0  0  0  0  0  0  0  0  0  0
    4.0081    0.8793    0.0000 C   0  0  0  0  0  0  0  0  0  0  0  0
    2.5357    1.1657    0.0000 C   0  0  0  0  0  0  0  0  0  0  0  0
    3.2632    2.4776    0.0000 O   0  0  0  0  0  0  0  0  0  0  0  0
    1.5129    2.2630    0.0000 C   0  0  0  0  0  0  0  0  0  0  0  0
    0.1533    1.6293    0.0000 C   0  0  0  0  0  0  0  0  0  0  0  0
   -1.2273    2.2156    0.0000 C   0  0  0  0  0  0  0  0  0  0  0  0
   -1.4099    3.7045    0.0000 O   0  0  0  0  0  0  0  0  0  0  0  0
   -2.4254    1.3131    0.0000 O   0  0  0  0  0  0  0  0  0  0  0  0
   -2.2429   -0.1758    0.0000 C   0  0  0  0  0  0  0  0  0  0  0  0
   -3.4410   -1.0783    0.0000 C   0  0  0  0  0  0  0  0  0  0  0  0
   -4.8217   -0.4919    0.0000 C   0  0  0  0  0  0  0  0  0  0  0  0
   -5.0042    0.9969    0.0000 C   0  0  0  0  0  0  0  0  0  0  0  0
   -6.3849    1.5832    0.0000 C   0  0  0  0  0  0  0  0  0  0  0  0
   -7.5830    0.6807    0.0000 C   0  0  0  0  0  0  0  0  0  0  0  0
   -7.4004   -0.8081    0.0000 C   0  0  0  0  0  0  0  0  0  0  0  0
   -6.0198   -1.3945    0.0000 C   0  0  0  0  0  0  0  0  0  0  0  0
   -0.8622   -0.7621    0.0000 C   0  0  0  0  0  0  0  0  0  0  0  0
   -0.6797   -2.2510    0.0000 O   0  0  0  0  0  0  0  0  0  0  0  0
    0.3359    0.1404    0.0000 N   0  0  0  0  0  0  0  0  0  0  0  0
  1  2  2  0
  2  3  1  0
  3  4  1  0
  3  5  1  0
  6  3  1  1
  6  7  1  0
  7  8  1  0
  8  9  2  0
  9 10  1  0
 10 11  2  0
 11 12  1  0
 12 13  2  0
 13 14  1  0
 14 15  1  1
 14 16  1  0
 17 16  1  6
 17 18  1  0
 18 19  2  0
 18 20  1  0
 20 21  1  0
 21 22  1  6
 22 23  1  0
 23 24  2  0
 24 25  1  0
 25 26  2  0
 26 27  1  0
 27 28  2  0
 21 29  1  0
 29 30  2  0
 29 31  1  0
 14  6  1  0
 31 17  1  0
 31  6  1  0
 13  8  1  0
 28 23  1  0
M  END
>  <identifier>  (329) 
CNP0080279.1

>  <canonical_smiles>  (329) 
C=CC(C)(C)[C@]12NC3=CC=CC=C3[C@@]1(O)C[C@H]1C(=O)O[C@@H](CC3=CC=CC=C3)C(=O)N12

>  <standard_inchi>  (329) 
InChI=1S/C25H26N2O4/c1-4-23(2,3)25-24(30,17-12-8-9-13-18(17)26-25)15-19-22(29)31-20(21(28)27(19)25)14-16-10-6-5-7-11-16/h4-13,19-20,26,30H,1,14-15H2,2-3H3/t19-,20-,24-,25+/m0/s1

>  <standard_inchi_key>  (329) 
GBMUTTKBDFEONI-OTLGMJNYSA-N

>  <name>  (329) 
9-deoxy-PF1233 B

>  <iupac_name>  (329) 
(1~{R},4~{S},7~{S},9~{S})-4-benzyl-1-(1,1-dimethylallyl)-9-hydroxy-5-oxa-2,16-diazatetracyclo[7.7.0.0^{2,7}.0^{10,15}]hexadeca-10,12,14-triene-3,6-dione

>  <annotation_level>  (329) 
5

>  <total_atom_count>  (329) 
57

>  <heavy_atom_count>  (329) 
31

>  <molecular_weight>  (329) 
418.49

>  <exact_molecular_weight>  (329) 
418.18926

>  <molecular_formula>  (329) 
C25H26N2O4

>  <alogp>  (329) 
2.98

>  <topological_polar_surface_area>  (329) 
78.87

>  <rotatable_bond_count>  (329) 
4

>  <hydrogen_bond_acceptors>  (329) 
5

>  <hydrogen_bond_donors>  (329) 
2

>  <hydrogen_bond_acceptors_lipinski>  (329) 
5

>  <hydrogen_bond_donors_lipinski>  (329) 
2

>  <lipinski_rule_of_five_violations>  (329) 
0

>  <aromatic_rings_count>  (329) 
2

>  <qed_drug_likeliness>  (329) 
0.59

>  <formal_charge>  (329) 
0

>  <fractioncsp3>  (329) 
0.36

>  <number_of_minimal_rings>  (329) 
5

>  <van_der_walls_volume>  (329) 
377.45

>  <contains_sugar>  (329) 
False

>  <contains_ring_sugars>  (329) 
False

>  <contains_linear_sugars>  (329) 
False

>  <murcko_framework>  (329) 
O1CC2N(CC1Cc3ccccc3)C4Nc5ccccc5C4C2

>  <np_likeness>  (329) 
1.68

>  <chemical_class>  (329) 
Peptidomimetics

>  <chemical_sub_class>  (329) 
Hybrid peptides

>  <chemical_super_class>  (329) 
Organic acids and derivatives

>  <direct_parent_classification>  (329) 
Hybrid peptides

>  <np_classifier_pathway>  (329) 
Alkaloids

>  <np_classifier_superclass>  (329) 
Peptide alkaloids

>  <np_classifier_class>  (329) 
Other indole diketopiperazine alkaloids

>  <np_classifier_is_glycoside>  (329) 
False

>  <organisms>  (329) 
Aspergillus sp.|Aspergillus sp. MEXU 27854

>  <collections>  (329) 
BIOFACQUIM|CMNPD|Latin America dataset|NPAtlas

>  <dois>  (329) 
10.1021/acs.jnatprod.7b00331|10.1039/c8np00092a

>  <synonyms>  (329) 
CHEBI:208048|(1R|4S|7S|9S)-4-benzyl-9-hydroxy-1-(2-methylbut-3-en-2-yl)-5-oxa-2|16-diazatetracyclo7.7.0.02|7.010|15hexadeca-10|12|14-triene-3|6-dione|9-deoxy-PF1233 B

>  <cas>  (329) 
nan

$$$$

     RDKit          2D

 24 25  0  0  0  0  0  0  0  0999 V2000
   12.6279   -0.9588    0.0000 C   0  0  0  0  0  0  0  0  0  0  0  0
   11.3873   -0.1157    0.0000 C   0  0  0  0  0  0  0  0  0  0  0  0
   11.4971    1.3803    0.0000 O   0  0  0  0  0  0  0  0  0  0  0  0
   10.0368   -0.7685    0.0000 C   0  0  0  0  0  0  0  0  0  0  0  0
    8.7962    0.0746    0.0000 C   0  0  0  0  0  0  0  0  0  0  0  0
    7.4457   -0.5782    0.0000 C   0  0  0  0  0  0  0  0  0  0  0  0
    6.2051    0.2649    0.0000 C   0  0  0  0  0  0  0  0  0  0  0  0
    4.8546   -0.3879    0.0000 C   0  0  0  0  0  0  0  0  0  0  0  0
    3.6140    0.4553    0.0000 C   0  0  0  0  0  0  0  0  0  0  0  0
    2.2635   -0.1976    0.0000 C   0  0  0  0  0  0  0  0  0  0  0  0
    1.0229    0.6456    0.0000 C   0  0  0  0  0  0  0  0  0  0  0  0
   -0.3276   -0.0073    0.0000 C   0  0  0  0  0  0  0  0  0  0  0  0
   -1.5682    0.8359    0.0000 C   0  0  0  0  0  0  0  0  0  0  0  0
   -2.9187    0.1830    0.0000 C   0  0  0  0  0  0  0  0  0  0  0  0
   -4.1593    1.0262    0.0000 C   0  0  0  0  0  0  0  0  0  0  0  0
   -5.5098    0.3733    0.0000 C   0  0  0  0  0  0  0  0  0  0  0  0
   -5.6197   -1.1226    0.0000 C   0  0  0  0  0  0  0  0  0  0  0  0
   -6.9702   -1.7755    0.0000 C   0  0  0  0  0  0  0  0  0  0  0  0
   -8.2108   -0.9323    0.0000 C   0  0  0  0  0  0  0  0  0  0  0  0
   -9.6675   -1.2901    0.0000 O   0  0  0  0  0  0  0  0  0  0  0  0
  -10.4579   -0.0153    0.0000 C   0  0  0  0  0  0  0  0  0  0  0  0
   -9.4897    1.1304    0.0000 O   0  0  0  0  0  0  0  0  0  0  0  0
   -8.1009    0.5636    0.0000 C   0  0  0  0  0  0  0  0  0  0  0  0
   -6.7504    1.2165    0.0000 C   0  0  0  0  0  0  0  0  0  0  0  0
  1  2  1  0
  2  3  2  0
  2  4  1  0
  4  5  1  0
  5  6  1  0
  6  7  1  0
  7  8  1  0
  8  9  1  0
  9 10  1  0
 10 11  1  0
 11 12  1  0
 12 13  1  0
 13 14  1  0
 14 15  2  3
 15 16  1  0
 16 17  2  0
 17 18  1  0
 18 19  2  0
 19 20  1  0
 20 21  1  0
 21 22  1  0
 22 23  1  0
 23 24  2  0
 24 16  1  0
 23 19  1  0
M  END
>  <identifier>  (330) 
CNP0246196.0

>  <canonical_smiles>  (330) 
CC(=O)CCCCCCCCCCC=CC1=CC=C2OCOC2=C1

>  <standard_inchi>  (330) 
InChI=1S/C21H30O3/c1-18(22)12-10-8-6-4-2-3-5-7-9-11-13-19-14-15-20-21(16-19)24-17-23-20/h11,13-16H,2-10,12,17H2,1H3

>  <standard_inchi_key>  (330) 
XSCQBXUNBGFDEK-UHFFFAOYSA-N

>  <name>  (330) 
828263-14-5

>  <iupac_name>  (330) 
14-(1,3-benzodioxol-5-yl)tetradec-13-en-2-one

>  <annotation_level>  (330) 
5

>  <total_atom_count>  (330) 
54

>  <heavy_atom_count>  (330) 
24

>  <molecular_weight>  (330) 
330.47

>  <exact_molecular_weight>  (330) 
330.21949

>  <molecular_formula>  (330) 
C21H30O3

>  <alogp>  (330) 
5.92

>  <topological_polar_surface_area>  (330) 
35.53

>  <rotatable_bond_count>  (330) 
12

>  <hydrogen_bond_acceptors>  (330) 
3

>  <hydrogen_bond_donors>  (330) 
0

>  <hydrogen_bond_acceptors_lipinski>  (330) 
3

>  <hydrogen_bond_donors_lipinski>  (330) 
0

>  <lipinski_rule_of_five_violations>  (330) 
1

>  <aromatic_rings_count>  (330) 
1

>  <qed_drug_likeliness>  (330) 
0.45

>  <formal_charge>  (330) 
0

>  <fractioncsp3>  (330) 
0.57

>  <number_of_minimal_rings>  (330) 
2

>  <van_der_walls_volume>  (330) 
337.10

>  <contains_sugar>  (330) 
False

>  <contains_ring_sugars>  (330) 
False

>  <contains_linear_sugars>  (330) 
False

>  <murcko_framework>  (330) 
O1c2ccccc2OC1

>  <np_likeness>  (330) 
0.83

>  <chemical_class>  (330) 
Benzodioxoles

>  <chemical_sub_class>  (330) 
Benzodioxoles

>  <chemical_super_class>  (330) 
Organoheterocyclic compounds

>  <direct_parent_classification>  (330) 
Benzodioxoles

>  <np_classifier_pathway>  (330) 
Shikimates and Phenylpropanoids

>  <np_classifier_superclass>  (330) 
nan

>  <np_classifier_class>  (330) 
nan

>  <np_classifier_is_glycoside>  (330) 
False

>  <organisms>  (330) 
Piper sanctum

>  <collections>  (330) 
BIOFACQUIM|Latin America dataset|UNPD (Universal Natural Products Database)

>  <dois>  (330) 
10.1021/np0401260

>  <synonyms>  (330) 
14-(2H-1|3-Benzodioxol-5-yl)tetradec-13-en-2-one|DTXSID00836402|2-Oxo-14-(3' 4'-methylenedioxyphenyl)-trans-13-tetradecene

>  <cas>  (330) 
nan

$$$$

     RDKit          2D

 26 27  0  0  0  0  0  0  0  0999 V2000
   14.0070   -0.9378    0.0000 C   0  0  0  0  0  0  0  0  0  0  0  0
   12.7576   -0.1078    0.0000 C   0  0  0  0  0  0  0  0  0  0  0  0
   12.8516    1.3892    0.0000 O   0  0  0  0  0  0  0  0  0  0  0  0
   11.4141   -0.7749    0.0000 C   0  0  0  0  0  0  0  0  0  0  0  0
   10.1646    0.0551    0.0000 C   0  0  0  0  0  0  0  0  0  0  0  0
    8.8211   -0.6120    0.0000 C   0  0  0  0  0  0  0  0  0  0  0  0
    7.5716    0.2180    0.0000 C   0  0  0  0  0  0  0  0  0  0  0  0
    6.2281   -0.4491    0.0000 C   0  0  0  0  0  0  0  0  0  0  0  0
    4.9787    0.3809    0.0000 C   0  0  0  0  0  0  0  0  0  0  0  0
    3.6352   -0.2862    0.0000 C   0  0  0  0  0  0  0  0  0  0  0  0
    2.3857    0.5438    0.0000 C   0  0  0  0  0  0  0  0  0  0  0  0
    1.0422   -0.1233    0.0000 C   0  0  0  0  0  0  0  0  0  0  0  0
   -0.2072    0.7067    0.0000 C   0  0  0  0  0  0  0  0  0  0  0  0
   -1.5508    0.0396    0.0000 C   0  0  0  0  0  0  0  0  0  0  0  0
   -2.8002    0.8696    0.0000 C   0  0  0  0  0  0  0  0  0  0  0  0
   -4.1437    0.2025    0.0000 C   0  0  0  0  0  0  0  0  0  0  0  0
   -5.3932    1.0325    0.0000 C   0  0  0  0  0  0  0  0  0  0  0  0
   -6.7367    0.3654    0.0000 C   0  0  0  0  0  0  0  0  0  0  0  0
   -6.8307   -1.1316    0.0000 C   0  0  0  0  0  0  0  0  0  0  0  0
   -8.1742   -1.7987    0.0000 C   0  0  0  0  0  0  0  0  0  0  0  0
   -9.4237   -0.9687    0.0000 C   0  0  0  0  0  0  0  0  0  0  0  0
  -10.8765   -1.3419    0.0000 O   0  0  0  0  0  0  0  0  0  0  0  0
  -11.6804   -0.0755    0.0000 C   0  0  0  0  0  0  0  0  0  0  0  0
  -10.7244    1.0804    0.0000 O   0  0  0  0  0  0  0  0  0  0  0  0
   -9.3296    0.5283    0.0000 C   0  0  0  0  0  0  0  0  0  0  0  0
   -7.9861    1.1954    0.0000 C   0  0  0  0  0  0  0  0  0  0  0  0
  1  2  1  0
  2  3  2  0
  2  4  1  0
  4  5  1  0
  5  6  1  0
  6  7  1  0
  7  8  1  0
  8  9  1  0
  9 10  1  0
 10 11  1  0
 11 12  1  0
 12 13  1  0
 13 14  1  0
 14 15  1  0
 15 16  1  0
 16 17  2  3
 17 18  1  0
 18 19  2  0
 19 20  1  0
 20 21  2  0
 21 22  1  0
 22 23  1  0
 23 24  1  0
 24 25  1  0
 25 26  2  0
 26 18  1  0
 25 21  1  0
M  END
>  <identifier>  (331) 
CNP0181601.0

>  <canonical_smiles>  (331) 
CC(=O)CCCCCCCCCCCCC=CC1=CC=C2OCOC2=C1

>  <standard_inchi>  (331) 
InChI=1S/C23H34O3/c1-20(24)14-12-10-8-6-4-2-3-5-7-9-11-13-15-21-16-17-22-23(18-21)26-19-25-22/h13,15-18H,2-12,14,19H2,1H3

>  <standard_inchi_key>  (331) 
RSLLRVSPUBUTHT-UHFFFAOYSA-N

>  <name>  (331) 
828263-17-8

>  <iupac_name>  (331) 
16-(1,3-benzodioxol-5-yl)hexadec-15-en-2-one

>  <annotation_level>  (331) 
5

>  <total_atom_count>  (331) 
60

>  <heavy_atom_count>  (331) 
26

>  <molecular_weight>  (331) 
358.52

>  <exact_molecular_weight>  (331) 
358.25079

>  <molecular_formula>  (331) 
C23H34O3

>  <alogp>  (331) 
6.70

>  <topological_polar_surface_area>  (331) 
35.53

>  <rotatable_bond_count>  (331) 
14

>  <hydrogen_bond_acceptors>  (331) 
3

>  <hydrogen_bond_donors>  (331) 
0

>  <hydrogen_bond_acceptors_lipinski>  (331) 
3

>  <hydrogen_bond_donors_lipinski>  (331) 
0

>  <lipinski_rule_of_five_violations>  (331) 
1

>  <aromatic_rings_count>  (331) 
1

>  <qed_drug_likeliness>  (331) 
0.35

>  <formal_charge>  (331) 
0

>  <fractioncsp3>  (331) 
0.61

>  <number_of_minimal_rings>  (331) 
2

>  <van_der_walls_volume>  (331) 
368.01

>  <contains_sugar>  (331) 
False

>  <contains_ring_sugars>  (331) 
False

>  <contains_linear_sugars>  (331) 
False

>  <murcko_framework>  (331) 
O1c2ccccc2OC1

>  <np_likeness>  (331) 
0.77

>  <chemical_class>  (331) 
Benzodioxoles

>  <chemical_sub_class>  (331) 
Benzodioxoles

>  <chemical_super_class>  (331) 
Organoheterocyclic compounds

>  <direct_parent_classification>  (331) 
Benzodioxoles

>  <np_classifier_pathway>  (331) 
nan

>  <np_classifier_superclass>  (331) 
nan

>  <np_classifier_class>  (331) 
nan

>  <np_classifier_is_glycoside>  (331) 
False

>  <organisms>  (331) 
Piper sanctum

>  <collections>  (331) 
BIOFACQUIM|Latin America dataset|UNPD (Universal Natural Products Database)

>  <dois>  (331) 
10.1021/np0401260

>  <synonyms>  (331) 
15-Hexadecen-2-one| 16-(1|3-benzodioxol-5-yl)-| (15E)-|DTXSID00422506|2-Oxo-16-(3' 4'-methylenedioxyphenyl)-trans-15-hexadecene

>  <cas>  (331) 
nan

$$$$

     RDKit          2D

 28 29  0  0  0  0  0  0  0  0999 V2000
   15.3745   -0.9174    0.0000 C   0  0  0  0  0  0  0  0  0  0  0  0
   14.1182   -0.0979    0.0000 C   0  0  0  0  0  0  0  0  0  0  0  0
   14.1997    1.3999    0.0000 O   0  0  0  0  0  0  0  0  0  0  0  0
   12.7803   -0.7761    0.0000 C   0  0  0  0  0  0  0  0  0  0  0  0
   11.5239    0.0434    0.0000 C   0  0  0  0  0  0  0  0  0  0  0  0
   10.1860   -0.6349    0.0000 C   0  0  0  0  0  0  0  0  0  0  0  0
    8.9297    0.1846    0.0000 C   0  0  0  0  0  0  0  0  0  0  0  0
    7.5918   -0.4937    0.0000 C   0  0  0  0  0  0  0  0  0  0  0  0
    6.3354    0.3258    0.0000 C   0  0  0  0  0  0  0  0  0  0  0  0
    4.9976   -0.3525    0.0000 C   0  0  0  0  0  0  0  0  0  0  0  0
    3.7412    0.4670    0.0000 C   0  0  0  0  0  0  0  0  0  0  0  0
    2.4033   -0.2113    0.0000 C   0  0  0  0  0  0  0  0  0  0  0  0
    1.1470    0.6082    0.0000 C   0  0  0  0  0  0  0  0  0  0  0  0
   -0.1909   -0.0701    0.0000 C   0  0  0  0  0  0  0  0  0  0  0  0
   -1.4473    0.7494    0.0000 C   0  0  0  0  0  0  0  0  0  0  0  0
   -2.7851    0.0711    0.0000 C   0  0  0  0  0  0  0  0  0  0  0  0
   -4.0415    0.8906    0.0000 C   0  0  0  0  0  0  0  0  0  0  0  0
   -5.3794    0.2123    0.0000 C   0  0  0  0  0  0  0  0  0  0  0  0
   -6.6357    1.0318    0.0000 C   0  0  0  0  0  0  0  0  0  0  0  0
   -7.9736    0.3536    0.0000 C   0  0  0  0  0  0  0  0  0  0  0  0
   -8.0551   -1.1442    0.0000 C   0  0  0  0  0  0  0  0  0  0  0  0
   -9.3930   -1.8225    0.0000 C   0  0  0  0  0  0  0  0  0  0  0  0
  -10.6494   -1.0030    0.0000 C   0  0  0  0  0  0  0  0  0  0  0  0
  -12.0991   -1.3883    0.0000 O   0  0  0  0  0  0  0  0  0  0  0  0
  -12.9135   -0.1287    0.0000 C   0  0  0  0  0  0  0  0  0  0  0  0
  -11.9671    1.0351    0.0000 O   0  0  0  0  0  0  0  0  0  0  0  0
  -10.5679    0.4948    0.0000 C   0  0  0  0  0  0  0  0  0  0  0  0
   -9.2300    1.1731    0.0000 C   0  0  0  0  0  0  0  0  0  0  0  0
  1  2  1  0
  2  3  2  0
  2  4  1  0
  4  5  1  0
  5  6  1  0
  6  7  1  0
  7  8  1  0
  8  9  1  0
  9 10  1  0
 10 11  1  0
 11 12  1  0
 12 13  1  0
 13 14  1  0
 14 15  1  0
 15 16  1  0
 16 17  1  0
 17 18  1  0
 18 19  2  3
 19 20  1  0
 20 21  2  0
 21 22  1  0
 22 23  2  0
 23 24  1  0
 24 25  1  0
 25 26  1  0
 26 27  1  0
 27 28  2  0
 28 20  1  0
 27 23  1  0
M  END
>  <identifier>  (332) 
CNP0134654.0

>  <canonical_smiles>  (332) 
CC(=O)CCCCCCCCCCCCCCC=CC1=CC=C2OCOC2=C1

>  <standard_inchi>  (332) 
InChI=1S/C25H38O3/c1-22(26)16-14-12-10-8-6-4-2-3-5-7-9-11-13-15-17-23-18-19-24-25(20-23)28-21-27-24/h15,17-20H,2-14,16,21H2,1H3

>  <standard_inchi_key>  (332) 
VKISCDZKKVVZQH-UHFFFAOYSA-N

>  <name>  (332) 
828263-21-4

>  <iupac_name>  (332) 
18-(1,3-benzodioxol-5-yl)octadec-17-en-2-one

>  <annotation_level>  (332) 
5

>  <total_atom_count>  (332) 
66

>  <heavy_atom_count>  (332) 
28

>  <molecular_weight>  (332) 
386.58

>  <exact_molecular_weight>  (332) 
386.2821

>  <molecular_formula>  (332) 
C25H38O3

>  <alogp>  (332) 
7.48

>  <topological_polar_surface_area>  (332) 
35.53

>  <rotatable_bond_count>  (332) 
16

>  <hydrogen_bond_acceptors>  (332) 
3

>  <hydrogen_bond_donors>  (332) 
0

>  <hydrogen_bond_acceptors_lipinski>  (332) 
3

>  <hydrogen_bond_donors_lipinski>  (332) 
0

>  <lipinski_rule_of_five_violations>  (332) 
1

>  <aromatic_rings_count>  (332) 
1

>  <qed_drug_likeliness>  (332) 
0.28

>  <formal_charge>  (332) 
0

>  <fractioncsp3>  (332) 
0.64

>  <number_of_minimal_rings>  (332) 
2

>  <van_der_walls_volume>  (332) 
403.40

>  <contains_sugar>  (332) 
False

>  <contains_ring_sugars>  (332) 
False

>  <contains_linear_sugars>  (332) 
False

>  <murcko_framework>  (332) 
O1c2ccccc2OC1

>  <np_likeness>  (332) 
0.71

>  <chemical_class>  (332) 
Benzodioxoles

>  <chemical_sub_class>  (332) 
Benzodioxoles

>  <chemical_super_class>  (332) 
Organoheterocyclic compounds

>  <direct_parent_classification>  (332) 
Benzodioxoles

>  <np_classifier_pathway>  (332) 
nan

>  <np_classifier_superclass>  (332) 
nan

>  <np_classifier_class>  (332) 
nan

>  <np_classifier_is_glycoside>  (332) 
False

>  <organisms>  (332) 
Piper sanctum

>  <collections>  (332) 
BIOFACQUIM|Latin America dataset|UNPD (Universal Natural Products Database)

>  <dois>  (332) 
10.1021/np0401260

>  <synonyms>  (332) 
18-(2H-1|3-Benzodioxol-5-yl)octadec-17-en-2-one|DTXSID40836401|2-Oxo-18-(3' 4'-methylenedioxyphenyl)-trans-17-octadecene

>  <cas>  (332) 
nan

$$$$

     RDKit          2D

 23 23  0  0  0  0  0  0  0  0999 V2000
  -12.5630    0.9123    0.0000 C   0  0  0  0  0  0  0  0  0  0  0  0
  -11.3109    0.0863    0.0000 C   0  0  0  0  0  0  0  0  0  0  0  0
  -11.4002   -1.4110    0.0000 O   0  0  0  0  0  0  0  0  0  0  0  0
   -9.9695    0.7577    0.0000 C   0  0  0  0  0  0  0  0  0  0  0  0
   -8.7174   -0.0683    0.0000 C   0  0  0  0  0  0  0  0  0  0  0  0
   -7.3761    0.6031    0.0000 C   0  0  0  0  0  0  0  0  0  0  0  0
   -6.1240   -0.2229    0.0000 C   0  0  0  0  0  0  0  0  0  0  0  0
   -4.7826    0.4485    0.0000 C   0  0  0  0  0  0  0  0  0  0  0  0
   -3.5305   -0.3775    0.0000 C   0  0  0  0  0  0  0  0  0  0  0  0
   -2.1891    0.2938    0.0000 C   0  0  0  0  0  0  0  0  0  0  0  0
   -0.9370   -0.5321    0.0000 C   0  0  0  0  0  0  0  0  0  0  0  0
    0.4044    0.1392    0.0000 C   0  0  0  0  0  0  0  0  0  0  0  0
    1.6565   -0.6868    0.0000 C   0  0  0  0  0  0  0  0  0  0  0  0
    2.9978   -0.0154    0.0000 C   0  0  0  0  0  0  0  0  0  0  0  0
    4.2499   -0.8414    0.0000 C   0  0  0  0  0  0  0  0  0  0  0  0
    5.5913   -0.1700    0.0000 C   0  0  0  0  0  0  0  0  0  0  0  0
    6.8434   -0.9960    0.0000 C   0  0  0  0  0  0  0  0  0  0  0  0
    8.1848   -0.3246    0.0000 C   0  0  0  0  0  0  0  0  0  0  0  0
    8.2740    1.1727    0.0000 C   0  0  0  0  0  0  0  0  0  0  0  0
    9.6154    1.8441    0.0000 C   0  0  0  0  0  0  0  0  0  0  0  0
   10.8675    1.0181    0.0000 C   0  0  0  0  0  0  0  0  0  0  0  0
   10.7782   -0.4792    0.0000 C   0  0  0  0  0  0  0  0  0  0  0  0
    9.4369   -1.1506    0.0000 C   0  0  0  0  0  0  0  0  0  0  0  0
  1  2  1  0
  2  3  2  0
  2  4  1  0
  4  5  2  3
  5  6  1  0
  6  7  1  0
  7  8  1  0
  8  9  1  0
  9 10  1  0
 10 11  1  0
 11 12  1  0
 12 13  1  0
 13 14  1  0
 14 15  1  0
 15 16  1  0
 16 17  1  0
 17 18  1  0
 18 19  2  0
 19 20  1  0
 20 21  2  0
 21 22  1  0
 22 23  2  0
 23 18  1  0
M  END
>  <identifier>  (333) 
CNP0401665.0

>  <canonical_smiles>  (333) 
CC(=O)C=CCCCCCCCCCCCCC1=CC=CC=C1

>  <standard_inchi>  (333) 
InChI=1S/C22H34O/c1-21(23)17-13-10-8-6-4-2-3-5-7-9-11-14-18-22-19-15-12-16-20-22/h12-13,15-17,19-20H,2-11,14,18H2,1H3

>  <standard_inchi_key>  (333) 
MRIJVCUMMLLFRJ-UHFFFAOYSA-N

>  <name>  (333) 
3-Hexadecen-2-one, 16-phenyl-, (3E)-

>  <iupac_name>  (333) 
16-phenylhexadec-3-en-2-one

>  <annotation_level>  (333) 
5

>  <total_atom_count>  (333) 
57

>  <heavy_atom_count>  (333) 
23

>  <molecular_weight>  (333) 
314.51

>  <exact_molecular_weight>  (333) 
314.26097

>  <molecular_formula>  (333) 
C22H34O

>  <alogp>  (333) 
6.67

>  <topological_polar_surface_area>  (333) 
17.07

>  <rotatable_bond_count>  (333) 
14

>  <hydrogen_bond_acceptors>  (333) 
1

>  <hydrogen_bond_donors>  (333) 
0

>  <hydrogen_bond_acceptors_lipinski>  (333) 
1

>  <hydrogen_bond_donors_lipinski>  (333) 
0

>  <lipinski_rule_of_five_violations>  (333) 
1

>  <aromatic_rings_count>  (333) 
1

>  <qed_drug_likeliness>  (333) 
0.28

>  <formal_charge>  (333) 
0

>  <fractioncsp3>  (333) 
0.59

>  <number_of_minimal_rings>  (333) 
1

>  <van_der_walls_volume>  (333) 
345.10

>  <contains_sugar>  (333) 
False

>  <contains_ring_sugars>  (333) 
False

>  <contains_linear_sugars>  (333) 
False

>  <murcko_framework>  (333) 
c1ccccc1

>  <np_likeness>  (333) 
0.72

>  <chemical_class>  (333) 
Benzene and substituted derivatives

>  <chemical_sub_class>  (333) 
Benzene and substituted derivatives

>  <chemical_super_class>  (333) 
Benzenoids

>  <direct_parent_classification>  (333) 
Benzene and substituted derivatives

>  <np_classifier_pathway>  (333) 
Polyketides

>  <np_classifier_superclass>  (333) 
Aromatic polyketides

>  <np_classifier_class>  (333) 
Catechols with side chains

>  <np_classifier_is_glycoside>  (333) 
False

>  <organisms>  (333) 
Piper sanctum

>  <collections>  (333) 
BIOFACQUIM|Latin America dataset|UNPD (Universal Natural Products Database)

>  <dois>  (333) 
10.1021/np0401260

>  <synonyms>  (333) 
828263-24-7|DTXSID60422507|2-Oxo-16-phenyl-trans-3-hexadecene

>  <cas>  (333) 
828263-24-7

$$$$

     RDKit          2D

 27 28  0  0  0  0  0  0  0  0999 V2000
  -10.3875   -3.7725    0.0000 C   0  0  0  0  0  0  0  0  0  0  0  0
   -8.9472   -3.3537    0.0000 O   0  0  0  0  0  0  0  0  0  0  0  0
   -8.5898   -1.8969    0.0000 C   0  0  0  0  0  0  0  0  0  0  0  0
   -9.6727   -0.8589    0.0000 O   0  0  0  0  0  0  0  0  0  0  0  0
   -7.1495   -1.4780    0.0000 C   0  0  0  0  0  0  0  0  0  0  0  0
   -6.7921   -0.0212    0.0000 C   0  0  0  0  0  0  0  0  0  0  0  0
   -7.8750    1.0167    0.0000 C   0  0  0  0  0  0  0  0  0  0  0  0
   -7.5176    2.4735    0.0000 C   0  0  0  0  0  0  0  0  0  0  0  0
   -6.0773    2.8924    0.0000 C   0  0  0  0  0  0  0  0  0  0  0  0
   -4.9943    1.8545    0.0000 C   0  0  0  0  0  0  0  0  0  0  0  0
   -3.5540    2.2734    0.0000 C   0  0  0  0  0  0  0  0  0  0  0  0
   -2.4711    1.2355    0.0000 C   0  0  0  0  0  0  0  0  0  0  0  0
   -1.0308    1.6544    0.0000 C   0  0  0  0  0  0  0  0  0  0  0  0
    0.0522    0.6164    0.0000 C   0  0  0  0  0  0  0  0  0  0  0  0
    1.4925    1.0353    0.0000 C   0  0  0  0  0  0  0  0  0  0  0  0
    2.5754   -0.0026    0.0000 C   0  0  0  0  0  0  0  0  0  0  0  0
    4.0157    0.4163    0.0000 C   0  0  0  0  0  0  0  0  0  0  0  0
    5.0987   -0.6216    0.0000 C   0  0  0  0  0  0  0  0  0  0  0  0
    6.5390   -0.2027    0.0000 C   0  0  0  0  0  0  0  0  0  0  0  0
    7.6219   -1.2407    0.0000 C   0  0  0  0  0  0  0  0  0  0  0  0
    9.0622   -0.8218    0.0000 C   0  0  0  0  0  0  0  0  0  0  0  0
   10.1452   -1.8597    0.0000 C   0  0  0  0  0  0  0  0  0  0  0  0
   11.5855   -1.4408    0.0000 C   0  0  0  0  0  0  0  0  0  0  0  0
   11.9429    0.0160    0.0000 C   0  0  0  0  0  0  0  0  0  0  0  0
   10.8600    1.0539    0.0000 C   0  0  0  0  0  0  0  0  0  0  0  0
    9.4196    0.6350    0.0000 C   0  0  0  0  0  0  0  0  0  0  0  0
   -5.3517    0.3977    0.0000 O   0  0  0  0  0  0  0  0  0  0  0  0
  1  2  1  0
  2  3  1  0
  3  4  2  0
  3  5  1  0
  5  6  1  0
  6  7  1  0
  7  8  1  0
  8  9  1  0
  9 10  1  0
 10 11  1  0
 11 12  1  0
 12 13  1  0
 13 14  1  0
 14 15  1  0
 15 16  1  0
 16 17  1  0
 17 18  1  0
 18 19  1  0
 19 20  1  0
 20 21  1  0
 21 22  2  0
 22 23  1  0
 23 24  2  0
 24 25  1  0
 25 26  2  0
 10 27  1  0
 27  6  1  0
 26 21  1  0
M  END
>  <identifier>  (334) 
CNP0134672.0

>  <canonical_smiles>  (334) 
COC(=O)CC1CCCC(CCCCCCCCCCC2=CC=CC=C2)O1

>  <standard_inchi>  (334) 
InChI=1S/C24H38O3/c1-26-24(25)20-23-19-13-18-22(27-23)17-12-7-5-3-2-4-6-9-14-21-15-10-8-11-16-21/h8,10-11,15-16,22-23H,2-7,9,12-14,17-20H2,1H3

>  <standard_inchi_key>  (334) 
UYTVHKZGZWOESS-UHFFFAOYSA-N

>  <name>  (334) 
2H-Pyran-2-acetic acid, tetrahydro-6-(10-phenyldecyl)-, methyl ester

>  <iupac_name>  (334) 
methyl 2-[6-(10-phenyldecyl)tetrahydropyran-2-yl]acetate

>  <annotation_level>  (334) 
5

>  <total_atom_count>  (334) 
65

>  <heavy_atom_count>  (334) 
27

>  <molecular_weight>  (334) 
374.57

>  <exact_molecular_weight>  (334) 
374.2821

>  <molecular_formula>  (334) 
C24H38O3

>  <alogp>  (334) 
6.24

>  <topological_polar_surface_area>  (334) 
35.53

>  <rotatable_bond_count>  (334) 
13

>  <hydrogen_bond_acceptors>  (334) 
3

>  <hydrogen_bond_donors>  (334) 
0

>  <hydrogen_bond_acceptors_lipinski>  (334) 
3

>  <hydrogen_bond_donors_lipinski>  (334) 
0

>  <lipinski_rule_of_five_violations>  (334) 
1

>  <aromatic_rings_count>  (334) 
1

>  <qed_drug_likeliness>  (334) 
0.30

>  <formal_charge>  (334) 
0

>  <fractioncsp3>  (334) 
0.71

>  <number_of_minimal_rings>  (334) 
2

>  <van_der_walls_volume>  (334) 
389.93

>  <contains_sugar>  (334) 
False

>  <contains_ring_sugars>  (334) 
False

>  <contains_linear_sugars>  (334) 
False

>  <murcko_framework>  (334) 
O1CCCCC1CCCCCCCCCCc2ccccc2

>  <np_likeness>  (334) 
0.57

>  <chemical_class>  (334) 
Oxanes

>  <chemical_sub_class>  (334) 
Oxanes

>  <chemical_super_class>  (334) 
Organoheterocyclic compounds

>  <direct_parent_classification>  (334) 
Oxanes

>  <np_classifier_pathway>  (334) 
Polyketides

>  <np_classifier_superclass>  (334) 
nan

>  <np_classifier_class>  (334) 
nan

>  <np_classifier_is_glycoside>  (334) 
False

>  <organisms>  (334) 
Piper sanctum

>  <collections>  (334) 
BIOFACQUIM|Latin America dataset|UNPD (Universal Natural Products Database)

>  <dois>  (334) 
10.1021/np0401260

>  <synonyms>  (334) 
828263-27-0|DTXSID20414948|methyl 2-6-(10-phenyldecyl)tetrahydropyran-2-ylacetate

>  <cas>  (334) 
828263-27-0

$$$$

     RDKit          2D

 24 24  0  0  0  0  0  0  0  0999 V2000
  -13.1266   -0.8441    0.0000 C   0  0  0  0  0  0  0  0  0  0  0  0
  -11.8686   -0.0272    0.0000 C   0  0  0  0  0  0  0  0  0  0  0  0
  -10.5321   -0.7082    0.0000 C   0  0  0  0  0  0  0  0  0  0  0  0
   -9.2740    0.1087    0.0000 C   0  0  0  0  0  0  0  0  0  0  0  0
   -7.9375   -0.5723    0.0000 C   0  0  0  0  0  0  0  0  0  0  0  0
   -6.6795    0.2446    0.0000 C   0  0  0  0  0  0  0  0  0  0  0  0
   -5.3430   -0.4364    0.0000 C   0  0  0  0  0  0  0  0  0  0  0  0
   -4.0850    0.3806    0.0000 C   0  0  0  0  0  0  0  0  0  0  0  0
   -2.7485   -0.3005    0.0000 C   0  0  0  0  0  0  0  0  0  0  0  0
   -1.4905    0.5165    0.0000 C   0  0  0  0  0  0  0  0  0  0  0  0
   -0.1540   -0.1645    0.0000 C   0  0  0  0  0  0  0  0  0  0  0  0
    1.1040    0.6524    0.0000 C   0  0  0  0  0  0  0  0  0  0  0  0
    2.4405   -0.0286    0.0000 C   0  0  0  0  0  0  0  0  0  0  0  0
    3.6986    0.7883    0.0000 C   0  0  0  0  0  0  0  0  0  0  0  0
    3.6201    2.2863    0.0000 C   0  0  0  0  0  0  0  0  0  0  0  0
    4.8781    3.1032    0.0000 C   0  0  0  0  0  0  0  0  0  0  0  0
    6.2146    2.4222    0.0000 C   0  0  0  0  0  0  0  0  0  0  0  0
    6.2931    0.9242    0.0000 C   0  0  0  0  0  0  0  0  0  0  0  0
    7.6296    0.2432    0.0000 C   0  0  0  0  0  0  0  0  0  0  0  0
    7.7080   -1.2547    0.0000 C   0  0  0  0  0  0  0  0  0  0  0  0
    6.4500   -2.0716    0.0000 O   0  0  0  0  0  0  0  0  0  0  0  0
    9.0445   -1.9357    0.0000 O   0  0  0  0  0  0  0  0  0  0  0  0
    9.1230   -3.4337    0.0000 C   0  0  0  0  0  0  0  0  0  0  0  0
    5.0351    0.1073    0.0000 O   0  0  0  0  0  0  0  0  0  0  0  0
  1  2  1  0
  2  3  1  0
  3  4  1  0
  4  5  1  0
  5  6  1  0
  6  7  1  0
  7  8  1  0
  8  9  1  0
  9 10  1  0
 10 11  1  0
 11 12  1  0
 12 13  1  0
 13 14  1  0
 14 15  1  0
 15 16  1  0
 16 17  1  0
 17 18  1  0
 18 19  1  0
 19 20  1  0
 20 21  2  0
 20 22  1  0
 22 23  1  0
 18 24  1  0
 24 14  1  0
M  END
>  <identifier>  (335) 
CNP0134669.0

>  <canonical_smiles>  (335) 
CCCCCCCCCCCCCC1CCCC(CC(=O)OC)O1

>  <standard_inchi>  (335) 
InChI=1S/C21H40O3/c1-3-4-5-6-7-8-9-10-11-12-13-15-19-16-14-17-20(24-19)18-21(22)23-2/h19-20H,3-18H2,1-2H3

>  <standard_inchi_key>  (335) 
KFHRRMKPUDPLGO-UHFFFAOYSA-N

>  <name>  (335) 
2H-Pyran-2-acetic acid, tetrahydro-6-tridecyl-, methyl ester

>  <iupac_name>  (335) 
methyl 2-(6-tridecyltetrahydropyran-2-yl)acetate

>  <annotation_level>  (335) 
5

>  <total_atom_count>  (335) 
64

>  <heavy_atom_count>  (335) 
24

>  <molecular_weight>  (335) 
340.55

>  <exact_molecular_weight>  (335) 
340.29775

>  <molecular_formula>  (335) 
C21H40O3

>  <alogp>  (335) 
6.19

>  <topological_polar_surface_area>  (335) 
35.53

>  <rotatable_bond_count>  (335) 
14

>  <hydrogen_bond_acceptors>  (335) 
3

>  <hydrogen_bond_donors>  (335) 
0

>  <hydrogen_bond_acceptors_lipinski>  (335) 
3

>  <hydrogen_bond_donors_lipinski>  (335) 
0

>  <lipinski_rule_of_five_violations>  (335) 
1

>  <aromatic_rings_count>  (335) 
0

>  <qed_drug_likeliness>  (335) 
0.28

>  <formal_charge>  (335) 
0

>  <fractioncsp3>  (335) 
0.95

>  <number_of_minimal_rings>  (335) 
1

>  <van_der_walls_volume>  (335) 
371.02

>  <contains_sugar>  (335) 
False

>  <contains_ring_sugars>  (335) 
False

>  <contains_linear_sugars>  (335) 
False

>  <murcko_framework>  (335) 
O1CCCCC1

>  <np_likeness>  (335) 
0.74

>  <chemical_class>  (335) 
Oxanes

>  <chemical_sub_class>  (335) 
Oxanes

>  <chemical_super_class>  (335) 
Organoheterocyclic compounds

>  <direct_parent_classification>  (335) 
Oxanes

>  <np_classifier_pathway>  (335) 
Fatty acids

>  <np_classifier_superclass>  (335) 
Fatty Acids and Conjugates

>  <np_classifier_class>  (335) 
nan

>  <np_classifier_is_glycoside>  (335) 
False

>  <organisms>  (335) 
Piper sanctum

>  <collections>  (335) 
BIOFACQUIM|Latin America dataset|UNPD (Universal Natural Products Database)

>  <dois>  (335) 
10.1021/np0401260

>  <synonyms>  (335) 
828263-30-5|DTXSID80414949|methyl 2-(6-tridecyltetrahydropyran-2-yl)acetate

>  <cas>  (335) 
828263-30-5

$$$$

     RDKit          2D

 24 24  0  0  0  0  0  0  0  0999 V2000
  -13.5330    1.4812    0.0000 C   0  0  0  0  0  0  0  0  0  0  0  0
  -12.3685    0.5357    0.0000 C   0  0  0  0  0  0  0  0  0  0  0  0
  -10.9675    1.0714    0.0000 C   0  0  0  0  0  0  0  0  0  0  0  0
   -9.8030    0.1259    0.0000 C   0  0  0  0  0  0  0  0  0  0  0  0
   -8.4019    0.6617    0.0000 C   0  0  0  0  0  0  0  0  0  0  0  0
   -7.2374   -0.2838    0.0000 C   0  0  0  0  0  0  0  0  0  0  0  0
   -5.8363    0.2519    0.0000 C   0  0  0  0  0  0  0  0  0  0  0  0
   -4.6719   -0.6936    0.0000 C   0  0  0  0  0  0  0  0  0  0  0  0
   -3.2708   -0.1578    0.0000 C   0  0  0  0  0  0  0  0  0  0  0  0
   -2.1063   -1.1033    0.0000 C   0  0  0  0  0  0  0  0  0  0  0  0
   -0.7052   -0.5676    0.0000 C   0  0  0  0  0  0  0  0  0  0  0  0
    0.4593   -1.5131    0.0000 C   0  0  0  0  0  0  0  0  0  0  0  0
    1.8603   -0.9773    0.0000 C   0  0  0  0  0  0  0  0  0  0  0  0
    3.0248   -1.9228    0.0000 C   0  0  0  0  0  0  0  0  0  0  0  0
    4.4259   -1.3871    0.0000 C   0  0  0  0  0  0  0  0  0  0  0  0
    5.6828   -2.2057    0.0000 C   0  0  0  0  0  0  0  0  0  0  0  0
    6.8498   -1.2632    0.0000 C   0  0  0  0  0  0  0  0  0  0  0  0
    6.3140    0.1379    0.0000 C   0  0  0  0  0  0  0  0  0  0  0  0
    7.1326    1.3948    0.0000 C   0  0  0  0  0  0  0  0  0  0  0  0
    8.6305    1.3144    0.0000 C   0  0  0  0  0  0  0  0  0  0  0  0
    9.3097   -0.0230    0.0000 O   0  0  0  0  0  0  0  0  0  0  0  0
    9.4491    2.5713    0.0000 O   0  0  0  0  0  0  0  0  0  0  0  0
   10.9469    2.4909    0.0000 C   0  0  0  0  0  0  0  0  0  0  0  0
    4.8160    0.0613    0.0000 O   0  0  0  0  0  0  0  0  0  0  0  0
  1  2  1  0
  2  3  1  0
  3  4  1  0
  4  5  1  0
  5  6  1  0
  6  7  1  0
  7  8  1  0
  8  9  1  0
  9 10  1  0
 10 11  1  0
 11 12  1  0
 12 13  1  0
 13 14  1  0
 14 15  1  0
 15 16  1  0
 16 17  1  0
 17 18  1  0
 18 19  1  0
 19 20  1  0
 20 21  2  0
 20 22  1  0
 22 23  1  0
 18 24  1  0
 24 15  1  0
M  END
>  <identifier>  (336) 
CNP0134665.0

>  <canonical_smiles>  (336) 
CCCCCCCCCCCCCCC1CCC(CC(=O)OC)O1

>  <standard_inchi>  (336) 
InChI=1S/C21H40O3/c1-3-4-5-6-7-8-9-10-11-12-13-14-15-19-16-17-20(24-19)18-21(22)23-2/h19-20H,3-18H2,1-2H3

>  <standard_inchi_key>  (336) 
YGQMDFMXPBTIRS-UHFFFAOYSA-N

>  <name>  (336) 
2-Furanacetic acid, tetrahydro-5-tetradecyl-, methyl ester

>  <iupac_name>  (336) 
methyl 2-(5-tetradecyltetrahydrofuran-2-yl)acetate

>  <annotation_level>  (336) 
5

>  <total_atom_count>  (336) 
64

>  <heavy_atom_count>  (336) 
24

>  <molecular_weight>  (336) 
340.55

>  <exact_molecular_weight>  (336) 
340.29775

>  <molecular_formula>  (336) 
C21H40O3

>  <alogp>  (336) 
6.19

>  <topological_polar_surface_area>  (336) 
35.53

>  <rotatable_bond_count>  (336) 
15

>  <hydrogen_bond_acceptors>  (336) 
3

>  <hydrogen_bond_donors>  (336) 
0

>  <hydrogen_bond_acceptors_lipinski>  (336) 
3

>  <hydrogen_bond_donors_lipinski>  (336) 
0

>  <lipinski_rule_of_five_violations>  (336) 
1

>  <aromatic_rings_count>  (336) 
0

>  <qed_drug_likeliness>  (336) 
0.26

>  <formal_charge>  (336) 
0

>  <fractioncsp3>  (336) 
0.95

>  <number_of_minimal_rings>  (336) 
1

>  <van_der_walls_volume>  (336) 
370.61

>  <contains_sugar>  (336) 
False

>  <contains_ring_sugars>  (336) 
False

>  <contains_linear_sugars>  (336) 
False

>  <murcko_framework>  (336) 
O1CCCC1

>  <np_likeness>  (336) 
0.80

>  <chemical_class>  (336) 
Tetrahydrofurans

>  <chemical_sub_class>  (336) 
Tetrahydrofurans

>  <chemical_super_class>  (336) 
Organoheterocyclic compounds

>  <direct_parent_classification>  (336) 
Tetrahydrofurans

>  <np_classifier_pathway>  (336) 
Fatty acids

>  <np_classifier_superclass>  (336) 
Fatty Acids and Conjugates

>  <np_classifier_class>  (336) 
Epoxy fatty acids

>  <np_classifier_is_glycoside>  (336) 
False

>  <organisms>  (336) 
Piper sanctum

>  <collections>  (336) 
BIOFACQUIM|Latin America dataset|UNPD (Universal Natural Products Database)

>  <dois>  (336) 
10.1021/np0401260

>  <synonyms>  (336) 
828263-33-8|DTXSID90414950|methyl 2-(5-tetradecyltetrahydrofuran-2-yl)acetate

>  <cas>  (336) 
828263-33-8

$$$$

     RDKit          2D

 24 25  0  0  0  0  0  0  0  0999 V2000
   12.6279   -0.9588    0.0000 C   0  0  0  0  0  0  0  0  0  0  0  0
   11.3873   -0.1157    0.0000 C   0  0  0  0  0  0  0  0  0  0  0  0
   11.4971    1.3803    0.0000 O   0  0  0  0  0  0  0  0  0  0  0  0
   10.0368   -0.7685    0.0000 C   0  0  0  0  0  0  0  0  0  0  0  0
    8.7962    0.0746    0.0000 C   0  0  0  0  0  0  0  0  0  0  0  0
    7.4457   -0.5782    0.0000 C   0  0  0  0  0  0  0  0  0  0  0  0
    6.2051    0.2649    0.0000 C   0  0  0  0  0  0  0  0  0  0  0  0
    4.8546   -0.3879    0.0000 C   0  0  0  0  0  0  0  0  0  0  0  0
    3.6140    0.4553    0.0000 C   0  0  0  0  0  0  0  0  0  0  0  0
    2.2635   -0.1976    0.0000 C   0  0  0  0  0  0  0  0  0  0  0  0
    1.0229    0.6456    0.0000 C   0  0  0  0  0  0  0  0  0  0  0  0
   -0.3276   -0.0073    0.0000 C   0  0  0  0  0  0  0  0  0  0  0  0
   -1.5682    0.8359    0.0000 C   0  0  0  0  0  0  0  0  0  0  0  0
   -2.9187    0.1830    0.0000 C   0  0  0  0  0  0  0  0  0  0  0  0
   -4.1593    1.0262    0.0000 C   0  0  0  0  0  0  0  0  0  0  0  0
   -5.5098    0.3733    0.0000 C   0  0  0  0  0  0  0  0  0  0  0  0
   -5.6197   -1.1226    0.0000 C   0  0  0  0  0  0  0  0  0  0  0  0
   -6.9702   -1.7755    0.0000 C   0  0  0  0  0  0  0  0  0  0  0  0
   -8.2108   -0.9323    0.0000 C   0  0  0  0  0  0  0  0  0  0  0  0
   -9.6675   -1.2901    0.0000 O   0  0  0  0  0  0  0  0  0  0  0  0
  -10.4579   -0.0153    0.0000 C   0  0  0  0  0  0  0  0  0  0  0  0
   -9.4897    1.1304    0.0000 O   0  0  0  0  0  0  0  0  0  0  0  0
   -8.1009    0.5636    0.0000 C   0  0  0  0  0  0  0  0  0  0  0  0
   -6.7504    1.2165    0.0000 C   0  0  0  0  0  0  0  0  0  0  0  0
  1  2  1  0
  2  3  2  0
  2  4  1  0
  4  5  2  3
  5  6  1  0
  6  7  1  0
  7  8  1  0
  8  9  1  0
  9 10  1  0
 10 11  1  0
 11 12  1  0
 12 13  1  0
 13 14  1  0
 14 15  1  0
 15 16  1  0
 16 17  2  0
 17 18  1  0
 18 19  2  0
 19 20  1  0
 20 21  1  0
 21 22  1  0
 22 23  1  0
 23 24  2  0
 24 16  1  0
 23 19  1  0
M  END
>  <identifier>  (337) 
CNP0173907.0

>  <canonical_smiles>  (337) 
CC(=O)C=CCCCCCCCCCCC1=CC=C2OCOC2=C1

>  <standard_inchi>  (337) 
InChI=1S/C21H30O3/c1-18(22)12-10-8-6-4-2-3-5-7-9-11-13-19-14-15-20-21(16-19)24-17-23-20/h10,12,14-16H,2-9,11,13,17H2,1H3

>  <standard_inchi_key>  (337) 
HYOOYGBSEUETML-UHFFFAOYSA-N

>  <name>  (337) 
828263-36-1

>  <iupac_name>  (337) 
14-(1,3-benzodioxol-5-yl)tetradec-3-en-2-one

>  <annotation_level>  (337) 
5

>  <total_atom_count>  (337) 
54

>  <heavy_atom_count>  (337) 
24

>  <molecular_weight>  (337) 
330.47

>  <exact_molecular_weight>  (337) 
330.21949

>  <molecular_formula>  (337) 
C21H30O3

>  <alogp>  (337) 
5.61

>  <topological_polar_surface_area>  (337) 
35.53

>  <rotatable_bond_count>  (337) 
12

>  <hydrogen_bond_acceptors>  (337) 
3

>  <hydrogen_bond_donors>  (337) 
0

>  <hydrogen_bond_acceptors_lipinski>  (337) 
3

>  <hydrogen_bond_donors_lipinski>  (337) 
0

>  <lipinski_rule_of_five_violations>  (337) 
1

>  <aromatic_rings_count>  (337) 
1

>  <qed_drug_likeliness>  (337) 
0.37

>  <formal_charge>  (337) 
0

>  <fractioncsp3>  (337) 
0.57

>  <number_of_minimal_rings>  (337) 
2

>  <van_der_walls_volume>  (337) 
337.26

>  <contains_sugar>  (337) 
False

>  <contains_ring_sugars>  (337) 
False

>  <contains_linear_sugars>  (337) 
False

>  <murcko_framework>  (337) 
O1c2ccccc2OC1

>  <np_likeness>  (337) 
0.84

>  <chemical_class>  (337) 
Benzodioxoles

>  <chemical_sub_class>  (337) 
Benzodioxoles

>  <chemical_super_class>  (337) 
Organoheterocyclic compounds

>  <direct_parent_classification>  (337) 
Benzodioxoles

>  <np_classifier_pathway>  (337) 
nan

>  <np_classifier_superclass>  (337) 
nan

>  <np_classifier_class>  (337) 
nan

>  <np_classifier_is_glycoside>  (337) 
False

>  <organisms>  (337) 
Piper sanctum

>  <collections>  (337) 
BIOFACQUIM|Latin America dataset|UNPD (Universal Natural Products Database)

>  <dois>  (337) 
10.1021/np0401260

>  <synonyms>  (337) 
14-(2H-1|3-Benzodioxol-5-yl)tetradec-3-en-2-one|DTXSID80836400|2-Oxo-14-(3' 4'-methylenedioxyphenyl)-trans-3-tetradecene

>  <cas>  (337) 
nan

$$$$

     RDKit          2D

 26 27  0  0  0  0  0  0  0  0999 V2000
   14.0070   -0.9378    0.0000 C   0  0  0  0  0  0  0  0  0  0  0  0
   12.7576   -0.1078    0.0000 C   0  0  0  0  0  0  0  0  0  0  0  0
   12.8516    1.3892    0.0000 O   0  0  0  0  0  0  0  0  0  0  0  0
   11.4141   -0.7749    0.0000 C   0  0  0  0  0  0  0  0  0  0  0  0
   10.1646    0.0551    0.0000 C   0  0  0  0  0  0  0  0  0  0  0  0
    8.8211   -0.6120    0.0000 C   0  0  0  0  0  0  0  0  0  0  0  0
    7.5716    0.2180    0.0000 C   0  0  0  0  0  0  0  0  0  0  0  0
    6.2281   -0.4491    0.0000 C   0  0  0  0  0  0  0  0  0  0  0  0
    4.9787    0.3809    0.0000 C   0  0  0  0  0  0  0  0  0  0  0  0
    3.6352   -0.2862    0.0000 C   0  0  0  0  0  0  0  0  0  0  0  0
    2.3857    0.5438    0.0000 C   0  0  0  0  0  0  0  0  0  0  0  0
    1.0422   -0.1233    0.0000 C   0  0  0  0  0  0  0  0  0  0  0  0
   -0.2072    0.7067    0.0000 C   0  0  0  0  0  0  0  0  0  0  0  0
   -1.5508    0.0396    0.0000 C   0  0  0  0  0  0  0  0  0  0  0  0
   -2.8002    0.8696    0.0000 C   0  0  0  0  0  0  0  0  0  0  0  0
   -4.1437    0.2025    0.0000 C   0  0  0  0  0  0  0  0  0  0  0  0
   -5.3932    1.0325    0.0000 C   0  0  0  0  0  0  0  0  0  0  0  0
   -6.7367    0.3654    0.0000 C   0  0  0  0  0  0  0  0  0  0  0  0
   -6.8307   -1.1316    0.0000 C   0  0  0  0  0  0  0  0  0  0  0  0
   -8.1742   -1.7987    0.0000 C   0  0  0  0  0  0  0  0  0  0  0  0
   -9.4237   -0.9687    0.0000 C   0  0  0  0  0  0  0  0  0  0  0  0
  -10.8765   -1.3419    0.0000 O   0  0  0  0  0  0  0  0  0  0  0  0
  -11.6804   -0.0755    0.0000 C   0  0  0  0  0  0  0  0  0  0  0  0
  -10.7244    1.0804    0.0000 O   0  0  0  0  0  0  0  0  0  0  0  0
   -9.3296    0.5283    0.0000 C   0  0  0  0  0  0  0  0  0  0  0  0
   -7.9861    1.1954    0.0000 C   0  0  0  0  0  0  0  0  0  0  0  0
  1  2  1  0
  2  3  2  0
  2  4  1  0
  4  5  2  3
  5  6  1  0
  6  7  1  0
  7  8  1  0
  8  9  1  0
  9 10  1  0
 10 11  1  0
 11 12  1  0
 12 13  1  0
 13 14  1  0
 14 15  1  0
 15 16  1  0
 16 17  1  0
 17 18  1  0
 18 19  2  0
 19 20  1  0
 20 21  2  0
 21 22  1  0
 22 23  1  0
 23 24  1  0
 24 25  1  0
 25 26  2  0
 26 18  1  0
 25 21  1  0
M  END
>  <identifier>  (338) 
CNP0134658.0

>  <canonical_smiles>  (338) 
CC(=O)C=CCCCCCCCCCCCCC1=CC=C2OCOC2=C1

>  <standard_inchi>  (338) 
InChI=1S/C23H34O3/c1-20(24)14-12-10-8-6-4-2-3-5-7-9-11-13-15-21-16-17-22-23(18-21)26-19-25-22/h12,14,16-18H,2-11,13,15,19H2,1H3

>  <standard_inchi_key>  (338) 
GLEWZPUZTYZURE-UHFFFAOYSA-N

>  <name>  (338) 
828263-40-7

>  <iupac_name>  (338) 
16-(1,3-benzodioxol-5-yl)hexadec-3-en-2-one

>  <annotation_level>  (338) 
5

>  <total_atom_count>  (338) 
60

>  <heavy_atom_count>  (338) 
26

>  <molecular_weight>  (338) 
358.52

>  <exact_molecular_weight>  (338) 
358.25079

>  <molecular_formula>  (338) 
C23H34O3

>  <alogp>  (338) 
6.39

>  <topological_polar_surface_area>  (338) 
35.53

>  <rotatable_bond_count>  (338) 
14

>  <hydrogen_bond_acceptors>  (338) 
3

>  <hydrogen_bond_donors>  (338) 
0

>  <hydrogen_bond_acceptors_lipinski>  (338) 
3

>  <hydrogen_bond_donors_lipinski>  (338) 
0

>  <lipinski_rule_of_five_violations>  (338) 
1

>  <aromatic_rings_count>  (338) 
1

>  <qed_drug_likeliness>  (338) 
0.29

>  <formal_charge>  (338) 
0

>  <fractioncsp3>  (338) 
0.61

>  <number_of_minimal_rings>  (338) 
2

>  <van_der_walls_volume>  (338) 
370.42

>  <contains_sugar>  (338) 
False

>  <contains_ring_sugars>  (338) 
False

>  <contains_linear_sugars>  (338) 
False

>  <murcko_framework>  (338) 
O1c2ccccc2OC1

>  <np_likeness>  (338) 
0.78

>  <chemical_class>  (338) 
Benzodioxoles

>  <chemical_sub_class>  (338) 
Benzodioxoles

>  <chemical_super_class>  (338) 
Organoheterocyclic compounds

>  <direct_parent_classification>  (338) 
Benzodioxoles

>  <np_classifier_pathway>  (338) 
nan

>  <np_classifier_superclass>  (338) 
nan

>  <np_classifier_class>  (338) 
nan

>  <np_classifier_is_glycoside>  (338) 
False

>  <organisms>  (338) 
Piper sanctum

>  <collections>  (338) 
BIOFACQUIM|Latin America dataset|UNPD (Universal Natural Products Database)

>  <dois>  (338) 
10.1021/np0401260

>  <synonyms>  (338) 
16-(2H-1|3-Benzodioxol-5-yl)hexadec-3-en-2-one|DTXSID30836399|2-Oxo-16-(3' 4'-methylenedioxyphenyl)-trans-3-hexadecene

>  <cas>  (338) 
nan

$$$$

     RDKit          2D

 23 23  0  0  0  0  0  0  0  0999 V2000
  -12.5630    0.9123    0.0000 C   0  0  0  0  0  0  0  0  0  0  0  0
  -11.3109    0.0863    0.0000 C   0  0  0  0  0  0  0  0  0  0  0  0
  -11.4002   -1.4110    0.0000 O   0  0  0  0  0  0  0  0  0  0  0  0
   -9.9695    0.7577    0.0000 C   0  0  0  0  0  0  0  0  0  0  0  0
   -8.7174   -0.0683    0.0000 C   0  0  0  0  0  0  0  0  0  0  0  0
   -7.3761    0.6031    0.0000 C   0  0  0  0  0  0  0  0  0  0  0  0
   -6.1240   -0.2229    0.0000 C   0  0  0  0  0  0  0  0  0  0  0  0
   -4.7826    0.4485    0.0000 C   0  0  0  0  0  0  0  0  0  0  0  0
   -3.5305   -0.3775    0.0000 C   0  0  0  0  0  0  0  0  0  0  0  0
   -2.1891    0.2938    0.0000 C   0  0  0  0  0  0  0  0  0  0  0  0
   -0.9370   -0.5321    0.0000 C   0  0  0  0  0  0  0  0  0  0  0  0
    0.4044    0.1392    0.0000 C   0  0  0  0  0  0  0  0  0  0  0  0
    1.6565   -0.6868    0.0000 C   0  0  0  0  0  0  0  0  0  0  0  0
    2.9978   -0.0154    0.0000 C   0  0  0  0  0  0  0  0  0  0  0  0
    4.2499   -0.8414    0.0000 C   0  0  0  0  0  0  0  0  0  0  0  0
    5.5913   -0.1700    0.0000 C   0  0  0  0  0  0  0  0  0  0  0  0
    6.8434   -0.9960    0.0000 C   0  0  0  0  0  0  0  0  0  0  0  0
    8.1848   -0.3246    0.0000 C   0  0  0  0  0  0  0  0  0  0  0  0
    8.2740    1.1727    0.0000 C   0  0  0  0  0  0  0  0  0  0  0  0
    9.6154    1.8441    0.0000 C   0  0  0  0  0  0  0  0  0  0  0  0
   10.8675    1.0181    0.0000 C   0  0  0  0  0  0  0  0  0  0  0  0
   10.7782   -0.4792    0.0000 C   0  0  0  0  0  0  0  0  0  0  0  0
    9.4369   -1.1506    0.0000 C   0  0  0  0  0  0  0  0  0  0  0  0
  1  2  1  0
  2  3  2  0
  2  4  1  0
  4  5  1  0
  5  6  1  0
  6  7  1  0
  7  8  1  0
  8  9  1  0
  9 10  1  0
 10 11  1  0
 11 12  1  0
 12 13  1  0
 13 14  1  0
 14 15  1  0
 15 16  1  0
 16 17  1  0
 17 18  1  0
 18 19  2  0
 19 20  1  0
 20 21  2  0
 21 22  1  0
 22 23  2  0
 23 18  1  0
M  END
>  <identifier>  (339) 
CNP0243428.0

>  <canonical_smiles>  (339) 
CC(=O)CCCCCCCCCCCCCCC1=CC=CC=C1

>  <standard_inchi>  (339) 
InChI=1S/C22H36O/c1-21(23)17-13-10-8-6-4-2-3-5-7-9-11-14-18-22-19-15-12-16-20-22/h12,15-16,19-20H,2-11,13-14,17-18H2,1H3

>  <standard_inchi_key>  (339) 
NWTRBPHNLLSBBD-UHFFFAOYSA-N

>  <name>  (339) 
2-Hexadecanone, 16-phenyl-

>  <iupac_name>  (339) 
16-phenylhexadecan-2-one

>  <annotation_level>  (339) 
5

>  <total_atom_count>  (339) 
59

>  <heavy_atom_count>  (339) 
23

>  <molecular_weight>  (339) 
316.53

>  <exact_molecular_weight>  (339) 
316.27662

>  <molecular_formula>  (339) 
C22H36O

>  <alogp>  (339) 
6.89

>  <topological_polar_surface_area>  (339) 
17.07

>  <rotatable_bond_count>  (339) 
15

>  <hydrogen_bond_acceptors>  (339) 
1

>  <hydrogen_bond_donors>  (339) 
0

>  <hydrogen_bond_acceptors_lipinski>  (339) 
1

>  <hydrogen_bond_donors_lipinski>  (339) 
0

>  <lipinski_rule_of_five_violations>  (339) 
1

>  <aromatic_rings_count>  (339) 
1

>  <qed_drug_likeliness>  (339) 
0.32

>  <formal_charge>  (339) 
0

>  <fractioncsp3>  (339) 
0.68

>  <number_of_minimal_rings>  (339) 
1

>  <van_der_walls_volume>  (339) 
351.08

>  <contains_sugar>  (339) 
False

>  <contains_ring_sugars>  (339) 
False

>  <contains_linear_sugars>  (339) 
False

>  <murcko_framework>  (339) 
c1ccccc1

>  <np_likeness>  (339) 
0.21

>  <chemical_class>  (339) 
Benzene and substituted derivatives

>  <chemical_sub_class>  (339) 
Benzene and substituted derivatives

>  <chemical_super_class>  (339) 
Benzenoids

>  <direct_parent_classification>  (339) 
Benzene and substituted derivatives

>  <np_classifier_pathway>  (339) 
Polyketides

>  <np_classifier_superclass>  (339) 
Aromatic polyketides

>  <np_classifier_class>  (339) 
Catechols with side chains

>  <np_classifier_is_glycoside>  (339) 
False

>  <organisms>  (339) 
Piper sanctum

>  <collections>  (339) 
BIOFACQUIM|Latin America dataset|UNPD (Universal Natural Products Database)

>  <dois>  (339) 
10.1021/np0401260

>  <synonyms>  (339) 
16-phenylhexadecan-2-one|828263-43-0|SCHEMBL547835|DTXSID50414951|AKOS025296107|2-Oxo-16-phenyl-3-hexadecane

>  <cas>  (339) 
828263-43-0

$$$$

     RDKit          2D

 34 38  0  0  0  0  0  0  0  0999 V2000
    0.5993   -4.4819    0.0000 C   0  0  0  0  0  0  0  0  0  0  0  0
   -0.0759   -3.1425    0.0000 C   0  0  0  0  0  0  0  0  0  0  0  0
    0.7464   -1.8880    0.0000 C   0  0  0  0  0  0  0  0  0  0  0  0
    2.0009   -2.7103    0.0000 C   0  0  0  0  0  0  0  0  0  0  0  0
   -0.5282   -1.4431    0.0000 C   0  0  0  0  0  0  0  0  0  0  0  0
    1.5687   -0.6335    0.0000 C   0  0  0  0  0  0  0  0  0  0  0  0
    2.5077   -1.8033    0.0000 N   0  0  0  0  0  0  0  0  0  0  0  0
    3.9104   -1.2717    0.0000 C   0  0  0  0  0  0  0  0  0  0  0  0
    5.2439   -1.9584    0.0000 C   0  0  0  0  0  0  0  0  0  0  0  0
    6.5054   -1.1468    0.0000 C   0  0  0  0  0  0  0  0  0  0  0  0
    6.4333    0.3515    0.0000 C   0  0  0  0  0  0  0  0  0  0  0  0
    5.0997    1.0381    0.0000 C   0  0  0  0  0  0  0  0  0  0  0  0
    3.8383    0.2266    0.0000 C   0  0  0  0  0  0  0  0  0  0  0  0
    2.3910    0.6210    0.0000 C   0  0  0  0  0  0  0  0  0  0  0  0
    3.2134    1.8755    0.0000 O   0  0  0  0  0  0  0  0  0  0  0  0
    2.5381    3.2149    0.0000 C   0  0  0  0  0  0  0  0  0  0  0  0
    3.3604    4.4694    0.0000 C   0  0  0  0  0  0  0  0  0  0  0  0
    1.0405    3.2998    0.0000 O   0  0  0  0  0  0  0  0  0  0  0  0
    1.4520    1.7907    0.0000 C   0  0  0  0  0  0  0  0  0  0  0  0
    0.0494    1.2592    0.0000 C   0  0  0  0  0  0  0  0  0  0  0  0
   -1.2842    1.9459    0.0000 C   0  0  0  0  0  0  0  0  0  0  0  0
   -1.3563    3.4441    0.0000 O   0  0  0  0  0  0  0  0  0  0  0  0
   -2.5457    1.1343    0.0000 O   0  0  0  0  0  0  0  0  0  0  0  0
   -2.4736   -0.3640    0.0000 C   0  0  0  0  0  0  0  0  0  0  0  0
   -3.7351   -1.1756    0.0000 C   0  0  0  0  0  0  0  0  0  0  0  0
   -5.0687   -0.4889    0.0000 C   0  0  0  0  0  0  0  0  0  0  0  0
   -5.1408    1.0094    0.0000 C   0  0  0  0  0  0  0  0  0  0  0  0
   -6.4743    1.6961    0.0000 C   0  0  0  0  0  0  0  0  0  0  0  0
   -7.7358    0.8845    0.0000 C   0  0  0  0  0  0  0  0  0  0  0  0
   -7.6637   -0.6138    0.0000 C   0  0  0  0  0  0  0  0  0  0  0  0
   -6.3301   -1.3004    0.0000 C   0  0  0  0  0  0  0  0  0  0  0  0
   -1.1400   -1.0507    0.0000 C   0  0  0  0  0  0  0  0  0  0  0  0
   -1.0679   -2.5489    0.0000 O   0  0  0  0  0  0  0  0  0  0  0  0
    0.1215   -0.2391    0.0000 N   0  0  0  0  0  0  0  0  0  0  0  0
  1  2  2  0
  2  3  1  0
  3  4  1  0
  3  5  1  0
  6  3  1  1
  6  7  1  0
  7  8  1  0
  8  9  2  0
  9 10  1  0
 10 11  2  0
 11 12  1  0
 12 13  2  0
 13 14  1  0
 14 15  1  1
 15 16  1  0
 16 17  1  0
 16 18  2  0
 14 19  1  0
 20 19  1  6
 20 21  1  0
 21 22  2  0
 21 23  1  0
 23 24  1  0
 24 25  1  6
 25 26  1  0
 26 27  2  0
 27 28  1  0
 28 29  2  0
 29 30  1  0
 30 31  2  0
 24 32  1  0
 32 33  2  0
 32 34  1  0
 14  6  1  0
 34 20  1  0
 34  6  1  0
 13  8  1  0
 31 26  1  0
M  END
>  <identifier>  (340) 
CNP0080280.1

>  <canonical_smiles>  (340) 
C=CC(C)(C)[C@]12NC3=CC=CC=C3[C@@]1(OC(C)=O)C[C@H]1C(=O)O[C@@H](CC3=CC=CC=C3)C(=O)N12

>  <standard_inchi>  (340) 
InChI=1S/C27H28N2O5/c1-5-25(3,4)27-26(34-17(2)30,19-13-9-10-14-20(19)28-27)16-21-24(32)33-22(23(31)29(21)27)15-18-11-7-6-8-12-18/h5-14,21-22,28H,1,15-16H2,2-4H3/t21-,22-,26-,27+/m0/s1

>  <standard_inchi_key>  (340) 
ORUUOHWWRMGNJL-RGXZNCPUSA-N

>  <name>  (340) 
9-deoxy-PF1233 A

>  <iupac_name>  (340) 
[(1~{R},4~{S},7~{S},9~{S})-4-benzyl-1-(1,1-dimethylallyl)-3,6-dioxo-5-oxa-2,16-diazatetracyclo[7.7.0.0^{2,7}.0^{10,15}]hexadeca-10,12,14-trien-9-yl] acetate

>  <annotation_level>  (340) 
5

>  <total_atom_count>  (340) 
62

>  <heavy_atom_count>  (340) 
34

>  <molecular_weight>  (340) 
460.53

>  <exact_molecular_weight>  (340) 
460.19982

>  <molecular_formula>  (340) 
C27H28N2O5

>  <alogp>  (340) 
3.55

>  <topological_polar_surface_area>  (340) 
84.94

>  <rotatable_bond_count>  (340) 
5

>  <hydrogen_bond_acceptors>  (340) 
6

>  <hydrogen_bond_donors>  (340) 
1

>  <hydrogen_bond_acceptors_lipinski>  (340) 
6

>  <hydrogen_bond_donors_lipinski>  (340) 
1

>  <lipinski_rule_of_five_violations>  (340) 
0

>  <aromatic_rings_count>  (340) 
2

>  <qed_drug_likeliness>  (340) 
0.54

>  <formal_charge>  (340) 
0

>  <fractioncsp3>  (340) 
0.37

>  <number_of_minimal_rings>  (340) 
5

>  <van_der_walls_volume>  (340) 
411.80

>  <contains_sugar>  (340) 
False

>  <contains_ring_sugars>  (340) 
False

>  <contains_linear_sugars>  (340) 
False

>  <murcko_framework>  (340) 
O1CC2N(CC1Cc3ccccc3)C4Nc5ccccc5C4C2

>  <np_likeness>  (340) 
1.46

>  <chemical_class>  (340) 
Peptidomimetics

>  <chemical_sub_class>  (340) 
Hybrid peptides

>  <chemical_super_class>  (340) 
Organic acids and derivatives

>  <direct_parent_classification>  (340) 
Hybrid peptides

>  <np_classifier_pathway>  (340) 
Alkaloids

>  <np_classifier_superclass>  (340) 
Peptide alkaloids

>  <np_classifier_class>  (340) 
Indole diketopiperazine alkaloids (L-Trp, L-Trp)

>  <np_classifier_is_glycoside>  (340) 
False

>  <organisms>  (340) 
Aspergillus sp.|Aspergillus sp. MEXU 27854|Aspergillus sp. MEXU 27855

>  <collections>  (340) 
BIOFACQUIM|CMNPD|Latin America dataset|NPAtlas

>  <dois>  (340) 
10.1021/acs.jnatprod.7b00331|10.1039/c8np00092a

>  <synonyms>  (340) 
CHEBI:208055|(1R|4S|7S|9S)-4-benzyl-1-(2-methylbut-3-en-2-yl)-3|6-dioxo-5-oxa-2|16-diazatetracyclo7.7.0.02|7.010|15hexadeca-10|12|14-trien-9-yl acetate|9-deoxy-PF1233 A

>  <cas>  (340) 
nan

$$$$

     RDKit          2D

 35 40  0  0  0  0  0  0  0  0999 V2000
   -1.6801   -5.3761    0.0000 C   0  0  0  0  0  0  0  0  0  0  0  0
   -2.0403   -3.9200    0.0000 C   0  0  0  0  0  0  0  0  0  0  0  0
   -3.4814   -3.5038    0.0000 O   0  0  0  0  0  0  0  0  0  0  0  0
   -0.9593   -2.8800    0.0000 O   0  0  0  0  0  0  0  0  0  0  0  0
   -1.3194   -1.4239    0.0000 C   0  0  0  0  0  0  0  0  0  0  0  0
   -2.7606   -1.0077    0.0000 C   0  0  0  0  0  0  0  0  0  0  0  0
   -3.1207    0.4484    0.0000 C   0  0  0  0  0  0  0  0  0  0  0  0
   -4.5618    0.8645    0.0000 C   0  0  0  0  0  0  0  0  0  0  0  0
   -6.0584    0.7627    0.0000 C   0  0  0  0  0  0  0  0  0  0  0  0
   -4.7214   -0.6269    0.0000 C   0  0  0  0  0  0  0  0  0  0  0  0
   -4.9220    2.3207    0.0000 C   0  0  0  0  0  0  0  0  0  0  0  0
   -6.3631    2.7368    0.0000 O   0  0  0  0  0  0  0  0  0  0  0  0
   -3.8410    3.3606    0.0000 C   0  0  0  0  0  0  0  0  0  0  0  0
   -2.3999    2.9445    0.0000 C   0  0  0  0  0  0  0  0  0  0  0  0
   -2.0397    1.4883    0.0000 C   0  0  0  0  0  0  0  0  0  0  0  0
   -0.9588    2.5283    0.0000 C   0  0  0  0  0  0  0  0  0  0  0  0
   -0.5986    1.0722    0.0000 C   0  0  0  0  0  0  0  0  0  0  0  0
    0.4823    2.1121    0.0000 C   0  0  0  0  0  0  0  0  0  0  0  0
    1.9234    1.6960    0.0000 C   0  0  0  0  0  0  0  0  0  0  0  0
    2.2836    0.2399    0.0000 C   0  0  0  0  0  0  0  0  0  0  0  0
    3.3646    1.2798    0.0000 C   0  0  0  0  0  0  0  0  0  0  0  0
    3.7247   -0.1763    0.0000 C   0  0  0  0  0  0  0  0  0  0  0  0
    4.8057    0.8636    0.0000 C   0  0  0  0  0  0  0  0  0  0  0  0
    4.5997    2.3494    0.0000 C   0  0  0  0  0  0  0  0  0  0  0  0
    5.9491    3.0045    0.0000 O   0  0  0  0  0  0  0  0  0  0  0  0
    6.9891    1.9235    0.0000 C   0  0  0  0  0  0  0  0  0  0  0  0
    6.2824    0.6004    0.0000 C   0  0  0  0  0  0  0  0  0  0  0  0
    4.0849   -1.6324    0.0000 O   0  0  0  0  0  0  0  0  0  0  0  0
    3.0039   -2.6724    0.0000 C   0  0  0  0  0  0  0  0  0  0  0  0
    3.3640   -4.1285    0.0000 O   0  0  0  0  0  0  0  0  0  0  0  0
    1.5628   -2.2562    0.0000 C   0  0  0  0  0  0  0  0  0  0  0  0
    0.1217   -1.8401    0.0000 O   0  0  0  0  0  0  0  0  0  0  0  0
    1.2026   -0.8001    0.0000 C   0  0  0  0  0  0  0  0  0  0  0  0
   -0.2385   -0.3839    0.0000 C   0  0  0  0  0  0  0  0  0  0  0  0
   -1.6796    0.0322    0.0000 C   0  0  0  0  0  0  0  0  0  0  0  0
  1  2  1  0
  2  3  2  0
  2  4  1  0
  5  4  1  6
  5  6  1  0
  7  6  1  1
  7  8  1  0
  8  9  1  0
  8 10  1  0
  8 11  1  0
 11 12  2  0
 11 13  1  0
 13 14  2  0
 14 15  1  0
 15 16  1  1
 15 17  1  0
 17 18  1  1
 18 19  1  0
 19 20  1  0
 20 21  1  6
 20 22  1  0
 22 23  1  6
 23 24  2  0
 24 25  1  0
 25 26  1  0
 26 27  2  0
 22 28  1  0
 28 29  1  0
 29 30  2  0
 29 31  1  0
 31 32  1  1
 33 32  1  1
 33 34  1  0
 34 35  1  1
 34  5  1  0
 15  7  1  0
 34 17  1  0
 33 20  1  0
 27 23  1  0
 33 31  1  0
M  END
>  <identifier>  (341) 
CNP0145998.1

>  <canonical_smiles>  (341) 
CC(=O)O[C@@H]1C[C@H]2C(C)(C)C(=O)C=C[C@]2(C)[C@H]2CC[C@@]3(C)[C@H](C4=COC=C4)OC(=O)[C@H]4O[C@]43[C@@]21C

>  <standard_inchi>  (341) 
InChI=1S/C28H34O7/c1-15(29)33-20-13-18-24(2,3)19(30)8-10-25(18,4)17-7-11-26(5)21(16-9-12-32-14-16)34-23(31)22-28(26,35-22)27(17,20)6/h8-10,12,14,17-18,20-22H,7,11,13H2,1-6H3/t17-,18+,20-,21+,22-,25-,26+,27+,28-/m1/s1

>  <standard_inchi_key>  (341) 
YJXDGWUNRYLINJ-BHAPSIHVSA-N

>  <name>  (341) 
gedunin

>  <iupac_name>  (341) 
[(1~{S},2~{R},4~{S},7~{S},8~{S},11~{R},12~{R},17~{R},19~{R})-7-(3-furyl)-1,8,12,16,16-pentamethyl-5,15-dioxo-3,6-dioxapentacyclo[9.8.0.0^{2,4}.0^{2,8}.0^{12,17}]nonadec-13-en-19-yl] acetate

>  <annotation_level>  (341) 
5

>  <total_atom_count>  (341) 
69

>  <heavy_atom_count>  (341) 
35

>  <molecular_weight>  (341) 
482.57

>  <exact_molecular_weight>  (341) 
482.23045

>  <molecular_formula>  (341) 
C28H34O7

>  <alogp>  (341) 
4.56

>  <topological_polar_surface_area>  (341) 
95.34

>  <rotatable_bond_count>  (341) 
2

>  <hydrogen_bond_acceptors>  (341) 
7

>  <hydrogen_bond_donors>  (341) 
0

>  <hydrogen_bond_acceptors_lipinski>  (341) 
7

>  <hydrogen_bond_donors_lipinski>  (341) 
0

>  <lipinski_rule_of_five_violations>  (341) 
0

>  <aromatic_rings_count>  (341) 
1

>  <qed_drug_likeliness>  (341) 
0.45

>  <formal_charge>  (341) 
0

>  <fractioncsp3>  (341) 
0.68

>  <number_of_minimal_rings>  (341) 
6

>  <van_der_walls_volume>  (341) 
433.40

>  <contains_sugar>  (341) 
False

>  <contains_ring_sugars>  (341) 
False

>  <contains_linear_sugars>  (341) 
False

>  <murcko_framework>  (341) 
o1ccc(c1)C2OCC3OC34C2CCC5C6C=CCCC6CCC54

>  <np_likeness>  (341) 
3.34

>  <chemical_class>  (341) 
Prenol lipids

>  <chemical_sub_class>  (341) 
Triterpenoids

>  <chemical_super_class>  (341) 
Lipids and lipid-like molecules

>  <direct_parent_classification>  (341) 
Limonoids

>  <np_classifier_pathway>  (341) 
Terpenoids

>  <np_classifier_superclass>  (341) 
Triterpenoids

>  <np_classifier_class>  (341) 
Limonoids

>  <np_classifier_is_glycoside>  (341) 
False

>  <organisms>  (341) 
Alaria nana|Artemisia arctica|Azadirachta indica|Cedrela odorata|Cedrela salvadorensis|Cedrela sinensis|Cyperus compressus|Entandrophragma angolense|Ferreirea spectabilis|Garcinia multiflora|Khaya grandifoliola|Melia azedarach|Meliaceae spp.|Pieris melete|Streptomyces fungicidicus|Trichilia pallida|Xylocarpus granatum|cedrela spp.

>  <collections>  (341) 
BIOFACQUIM|CMAUP (cCollective molecular activities of useful plants)|ChEBI NPs|KNApSaCK|Latin America dataset|NPASS|NuBBEDB|Super Natural II|TCMDB-Taiwan (Traditional Chinese Medicine database)|VietHerb|ZINC NP

>  <dois>  (341) 
10.1002/ptr.2159|10.1016/j.molstruc.2011.11.028|10.1016/s0378-8741(99)00117-8|10.1021/jf990443q|10.1021/jm8007486|10.1021/np068021f|10.1021/np100325q|10.1021/np100783k|10.1021/np50065a002|10.1021/np9605394

>  <synonyms>  (341) 
2753-30-2|Gedunine|(-)-gedunin|NSC 113497|CHEBI:65954|(1S|3aS|4aR|4bS|5R|6aR|10aR|10bR|12aS)-1-(Furan-3-yl)-4b|7|7|10a|12a-pentamethyl-3|8-dioxo-1|3|3a|4b|5|6|6a|7|8|10a|10b|11|12|12a-tetradecahydronaphtho2|1-foxireno2|3-disochromen-5-yl acetate|(4aR|6R|6aS|6bR|7aS|10R|10aS|12aR|12bR)-10-(3-furyl)-4|4|6a|10a|12b-pentamethyl-3|8-dioxo-3|4|4a|5|6|6a|7a|8|10|10a|11|12|12a|12b-tetradecahydrooxirenocphenanthro1|2-dpyran-6-yl acetate|Oxireno(c)phenanthro(1|2-d)pyran-3|8(3aH|4bH)-dione| 5-(acetyloxy)-1-(3-furanyl)-1|5|6|6a|7|10a|10b|11|12|12a-decahydro-4b|7|7|10a|12a-pentamethyl-|(1S|3aS|4aR|4bS|5R|6aR|10aR|10bR|12aS)-|VH4BN8F5Z5|MLS000563507|SCHEMBL598969|CHEMBL465226|HMS2218K19|HMS3413L14|HMS3677L14|D-Homo-24-nor-17-oxachola-1|20|22-triene-3|16-dione| 7-(acetyloxy)-14|15:21|23-diepoxy-4|4|8-trimethyl-| (5alpha|7alpha|13alpha|14beta|15beta|17aalpha)-|AKOS024457597|MS-28975|SMR000232316|XG161760|HY-107577|CS-0028900|G13062|SR-01000721401|A1-06837|Q15917840|(4aR|6R|6aS|6bR|7aS|10S|10aS|12aR|12bR)-10-(furan-3-yl)-4|4|6a|10a|12b-pentamethyl-3|8-dioxo-3|4|4a|5|6|6a|7a|8|10|10a|11|12|12a|12b-tetradecahydronaphtho2|1-foxirenodisochromen-6-yl acetate

>  <cas>  (341) 
2753-30-2

$$$$

     RDKit          2D

 17 18  0  0  0  0  0  0  0  0999 V2000
   -2.3096    3.4376    0.0000 C   0  0  0  0  0  0  0  0  0  0  0  0
   -2.0805    1.9552    0.0000 C   0  0  0  0  0  0  0  0  0  0  0  0
   -3.2498    1.0156    0.0000 C   0  0  0  0  0  0  0  0  0  0  0  0
   -3.0207   -0.4668    0.0000 C   0  0  0  0  0  0  0  0  0  0  0  0
   -1.6224   -1.0096    0.0000 C   0  0  0  0  0  0  0  0  0  0  0  0
   -1.3933   -2.4920    0.0000 C   0  0  0  0  0  0  0  0  0  0  0  0
   -2.5626   -3.4316    0.0000 C   0  0  0  0  0  0  0  0  0  0  0  0
    0.0050   -3.0348    0.0000 C   0  0  0  0  0  0  0  0  0  0  0  0
   -0.4531   -0.0700    0.0000 C   0  0  0  0  0  0  0  0  0  0  0  0
    0.9452   -0.6128    0.0000 C   0  0  0  0  0  0  0  0  0  0  0  0
    2.1145    0.3267    0.0000 C   0  0  0  0  0  0  0  0  0  0  0  0
    3.5128   -0.2161    0.0000 C   0  0  0  0  0  0  0  0  0  0  0  0
    4.6821    0.7235    0.0000 O   0  0  0  0  0  0  0  0  0  0  0  0
    3.7419   -1.6985    0.0000 O   0  0  0  0  0  0  0  0  0  0  0  0
    1.8854    1.8091    0.0000 C   0  0  0  0  0  0  0  0  0  0  0  0
    0.4871    2.3520    0.0000 C   0  0  0  0  0  0  0  0  0  0  0  0
   -0.6822    1.4124    0.0000 C   0  0  0  0  0  0  0  0  0  0  0  0
  1  2  1  0
  2  3  2  0
  3  4  1  0
  4  5  2  0
  5  6  1  0
  6  7  1  0
  6  8  1  0
  5  9  1  0
  9 10  2  0
 10 11  1  0
 11 12  1  0
 12 13  2  0
 12 14  1  0
 11 15  2  0
 15 16  1  0
 16 17  2  0
 17  2  1  0
 17  9  1  0
M  END
>  <identifier>  (342) 
CNP0266051.0

>  <canonical_smiles>  (342) 
CC1=CC=C(C(C)C)C2=CC(C(=O)O)=CC=C12

>  <standard_inchi>  (342) 
InChI=1S/C15H16O2/c1-9(2)12-6-4-10(3)13-7-5-11(15(16)17)8-14(12)13/h4-9H,1-3H3,(H,16,17)

>  <standard_inchi_key>  (342) 
YWCDNPYVVGGCFN-UHFFFAOYSA-N

>  <name>  (342) 
cadalen-15-oic acid

>  <iupac_name>  (342) 
8-isopropyl-5-methyl-naphthalene-2-carboxylic acid

>  <annotation_level>  (342) 
5

>  <total_atom_count>  (342) 
33

>  <heavy_atom_count>  (342) 
17

>  <molecular_weight>  (342) 
228.29

>  <exact_molecular_weight>  (342) 
228.11503

>  <molecular_formula>  (342) 
C15H16O2

>  <alogp>  (342) 
3.97

>  <topological_polar_surface_area>  (342) 
37.30

>  <rotatable_bond_count>  (342) 
2

>  <hydrogen_bond_acceptors>  (342) 
1

>  <hydrogen_bond_donors>  (342) 
1

>  <hydrogen_bond_acceptors_lipinski>  (342) 
1

>  <hydrogen_bond_donors_lipinski>  (342) 
1

>  <lipinski_rule_of_five_violations>  (342) 
0

>  <aromatic_rings_count>  (342) 
2

>  <qed_drug_likeliness>  (342) 
0.84

>  <formal_charge>  (342) 
0

>  <fractioncsp3>  (342) 
0.27

>  <number_of_minimal_rings>  (342) 
2

>  <van_der_walls_volume>  (342) 
218.01

>  <contains_sugar>  (342) 
False

>  <contains_ring_sugars>  (342) 
False

>  <contains_linear_sugars>  (342) 
False

>  <murcko_framework>  (342) 
c1ccc2ccccc2c1

>  <np_likeness>  (342) 
0.27

>  <chemical_class>  (342) 
Prenol lipids

>  <chemical_sub_class>  (342) 
Sesquiterpenoids

>  <chemical_super_class>  (342) 
Lipids and lipid-like molecules

>  <direct_parent_classification>  (342) 
Sesquiterpenoids

>  <np_classifier_pathway>  (342) 
Terpenoids

>  <np_classifier_superclass>  (342) 
Sesquiterpenoids

>  <np_classifier_class>  (342) 
Cadinane sesquiterpenoids

>  <np_classifier_is_glycoside>  (342) 
False

>  <organisms>  (342) 
Heterotheca inuloides

>  <collections>  (342) 
BIOFACQUIM|CMAUP (cCollective molecular activities of useful plants)|Latin America dataset|NPASS|Super Natural II|UNPD (Universal Natural Products Database)

>  <dois>  (342) 
10.1021/np0005107

>  <synonyms>  (342) 
CHEMBL445294|InChI=1\/C15H16O2\/c1-9(2)12-6-4-10(3)13-7-5-11(15(16)17)8-14(12)13\/h4-9H|1-3H3|(H|16|17|Cadalen-15-oic acid

>  <cas>  (342) 
nan

$$$$

     RDKit          2D

 43 47  0  0  0  0  0  0  0  0999 V2000
   -5.4554    3.2493    0.0000 C   0  0  0  0  0  0  0  0  0  0  0  0
   -3.9739    3.0142    0.0000 C   0  0  0  0  0  0  0  0  0  0  0  0
   -3.4368    1.6136    0.0000 C   0  0  0  0  0  0  0  0  0  0  0  0
   -4.3812    0.4482    0.0000 O   0  0  0  0  0  0  0  0  0  0  0  0
   -1.9554    1.3785    0.0000 C   0  0  0  0  0  0  0  0  0  0  0  0
   -0.8944    2.4388    0.0000 C   0  0  0  0  0  0  0  0  0  0  0  0
   -1.1285    3.9204    0.0000 O   0  0  0  0  0  0  0  0  0  0  0  0
    0.4419    1.7574    0.0000 O   0  0  0  0  0  0  0  0  0  0  0  0
    0.2068    0.2760    0.0000 C   0  0  0  0  0  0  0  0  0  0  0  0
    1.6558    0.6637    0.0000 C   0  0  0  0  0  0  0  0  0  0  0  0
    2.0445    2.1125    0.0000 O   0  0  0  0  0  0  0  0  0  0  0  0
   -1.2748    0.0418    0.0000 C   0  0  0  0  0  0  0  0  0  0  0  0
   -1.8128   -1.3584    0.0000 C   0  0  0  0  0  0  0  0  0  0  0  0
   -2.7973   -2.4902    0.0000 C   0  0  0  0  0  0  0  0  0  0  0  0
   -3.0983   -0.5854    0.0000 C   0  0  0  0  0  0  0  0  0  0  0  0
   -3.0717    0.9143    0.0000 O   0  0  0  0  0  0  0  0  0  0  0  0
   -4.3572    1.6873    0.0000 C   0  0  0  0  0  0  0  0  0  0  0  0
   -4.6942    3.1489    0.0000 C   0  0  0  0  0  0  0  0  0  0  0  0
   -5.6693    0.9605    0.0000 O   0  0  0  0  0  0  0  0  0  0  0  0
   -4.4105   -1.3122    0.0000 C   0  0  0  0  0  0  0  0  0  0  0  0
   -4.5938   -2.8010    0.0000 C   0  0  0  0  0  0  0  0  0  0  0  0
   -6.0663   -3.0867    0.0000 O   0  0  0  0  0  0  0  0  0  0  0  0
   -6.7931   -1.7746    0.0000 C   0  0  0  0  0  0  0  0  0  0  0  0
   -5.7697   -0.6779    0.0000 C   0  0  0  0  0  0  0  0  0  0  0  0
   -0.8692   -2.5244    0.0000 C   0  0  0  0  0  0  0  0  0  0  0  0
    0.6124   -2.2903    0.0000 C   0  0  0  0  0  0  0  0  0  0  0  0
    1.1504   -0.8901    0.0000 C   0  0  0  0  0  0  0  0  0  0  0  0
    2.6320   -0.6559    0.0000 C   0  0  0  0  0  0  0  0  0  0  0  0
    2.5018    0.8385    0.0000 C   0  0  0  0  0  0  0  0  0  0  0  0
    2.6053   -2.1556    0.0000 C   0  0  0  0  0  0  0  0  0  0  0  0
    1.2932   -2.8824    0.0000 O   0  0  0  0  0  0  0  0  0  0  0  0
    3.8908   -2.9286    0.0000 C   0  0  0  0  0  0  0  0  0  0  0  0
    5.2030   -2.2018    0.0000 C   0  0  0  0  0  0  0  0  0  0  0  0
    6.2264   -1.1051    0.0000 O   0  0  0  0  0  0  0  0  0  0  0  0
    5.4996    0.2070    0.0000 C   0  0  0  0  0  0  0  0  0  0  0  0
    6.1339    1.5663    0.0000 C   0  0  0  0  0  0  0  0  0  0  0  0
    5.2740    2.7953    0.0000 O   0  0  0  0  0  0  0  0  0  0  0  0
    7.6283    1.6966    0.0000 O   0  0  0  0  0  0  0  0  0  0  0  0
    8.2626    3.0558    0.0000 C   0  0  0  0  0  0  0  0  0  0  0  0
    4.0270   -0.0787    0.0000 C   0  0  0  0  0  0  0  0  0  0  0  0
    3.8438   -1.5675    0.0000 C   0  0  0  0  0  0  0  0  0  0  0  0
    2.3440   -1.5932    0.0000 C   0  0  0  0  0  0  0  0  0  0  0  0
    3.0263   -2.8252    0.0000 C   0  0  0  0  0  0  0  0  0  0  0  0
  1  2  1  0
  2  3  1  0
  3  4  2  0
  5  3  1  6
  5  6  1  0
  6  7  2  0
  6  8  1  0
  8  9  1  0
  9 10  1  1
 10 11  2  0
  9 12  1  0
 12 13  1  0
 13 14  1  6
 13 15  1  0
 15 16  1  6
 16 17  1  0
 17 18  1  0
 17 19  2  0
 15 20  1  0
 20 21  2  0
 21 22  1  0
 22 23  1  0
 23 24  2  0
 13 25  1  0
 25 26  1  0
 27 26  1  1
 27 28  1  0
 28 29  1  1
 28 30  1  0
 30 31  2  0
 30 32  1  0
 33 32  1  1
 33 34  1  0
 34 35  1  0
 35 36  1  6
 36 37  2  0
 36 38  1  0
 38 39  1  0
 35 40  1  0
 40 41  1  6
 41 42  1  0
 41 43  1  0
 12  5  1  1
 24 20  1  0
 40 28  1  0
 27  9  1  0
 41 33  1  0
M  END
>  <identifier>  (343) 
CNP0211839.1

>  <canonical_smiles>  (343) 
CCC(=O)[C@@H]1C(=O)O[C@@]2(C=O)[C@H]1[C@](C)([C@@H](OC(C)=O)C1=COC=C1)CC[C@@H]2[C@@]1(C)C(=O)C[C@@H]2O[C@@H](C(=O)OC)[C@H]1C2(C)C

>  <standard_inchi>  (343) 
InChI=1S/C32H40O11/c1-8-18(35)22-24-30(5,26(41-16(2)34)17-10-12-40-14-17)11-9-19(32(24,15-33)43-27(22)37)31(6)20(36)13-21-29(3,4)25(31)23(42-21)28(38)39-7/h10,12,14-15,19,21-26H,8-9,11,13H2,1-7H3/t19-,21+,22+,23-,24-,25+,26+,30-,31+,32-/m1/s1

>  <standard_inchi_key>  (343) 
UZGWMMOVPDKSHU-CVQXYGNNSA-N

>  <name>  (343) 
CEDRELANOLIDE

>  <iupac_name>  (343) 
methyl (1~{S},2~{S},5~{S},7~{R})-2-[(3~{R},3~{a}~{R},4~{R},7~{R},7~{a}~{R})-4-[(~{R})-acetoxy(3-furyl)methyl]-7~{a}-formyl-4-methyl-2-oxo-3-propanoyl-3~{a},5,6,7-tetrahydro-3~{H}-benzofuran-7-yl]-2,8,8-trimethyl-3-oxo-6-oxabicyclo[3.2.1]octane-7-carboxylate

>  <annotation_level>  (343) 
5

>  <total_atom_count>  (343) 
83

>  <heavy_atom_count>  (343) 
43

>  <molecular_weight>  (343) 
600.66

>  <exact_molecular_weight>  (343) 
600.25706

>  <molecular_formula>  (343) 
C32H40O11

>  <alogp>  (343) 
3.57

>  <topological_polar_surface_area>  (343) 
152.48

>  <rotatable_bond_count>  (343) 
8

>  <hydrogen_bond_acceptors>  (343) 
11

>  <hydrogen_bond_donors>  (343) 
0

>  <hydrogen_bond_acceptors_lipinski>  (343) 
11

>  <hydrogen_bond_donors_lipinski>  (343) 
0

>  <lipinski_rule_of_five_violations>  (343) 
2

>  <aromatic_rings_count>  (343) 
1

>  <qed_drug_likeliness>  (343) 
0.19

>  <formal_charge>  (343) 
0

>  <fractioncsp3>  (343) 
0.69

>  <number_of_minimal_rings>  (343) 
5

>  <van_der_walls_volume>  (343) 
531.93

>  <contains_sugar>  (343) 
False

>  <contains_ring_sugars>  (343) 
False

>  <contains_linear_sugars>  (343) 
False

>  <murcko_framework>  (343) 
o1ccc(c1)CC2CCC(C3OCCC32)C4CCC5OCC4C5

>  <np_likeness>  (343) 
1.80

>  <chemical_class>  (343) 
Carboxylic acids and derivatives

>  <chemical_sub_class>  (343) 
Tricarboxylic acids and derivatives

>  <chemical_super_class>  (343) 
Organic acids and derivatives

>  <direct_parent_classification>  (343) 
Tricarboxylic acids and derivatives

>  <np_classifier_pathway>  (343) 
Terpenoids

>  <np_classifier_superclass>  (343) 
Triterpenoids

>  <np_classifier_class>  (343) 
Limonoids

>  <np_classifier_is_glycoside>  (343) 
False

>  <organisms>  (343) 
Cedrela salvadorensis|cedrela spp.

>  <collections>  (343) 
BIOFACQUIM|Latin America dataset|NPASS|Super Natural II

>  <dois>  (343) 
10.1021/jf990443q

>  <synonyms>  (343) 
CHEMBL2269546|Cedrelanolide

>  <cas>  (343) 
nan

$$$$

     RDKit          2D

 33 37  0  0  0  0  0  0  0  0999 V2000
   -6.4246   -2.7081    0.0000 C   0  0  0  0  0  0  0  0  0  0  0  0
   -5.1129   -1.9805    0.0000 C   0  0  0  0  0  0  0  0  0  0  0  0
   -5.0871   -0.4808    0.0000 C   0  0  0  0  0  0  0  0  0  0  0  0
   -3.7753    0.2468    0.0000 C   0  0  0  0  0  0  0  0  0  0  0  0
   -2.4894   -0.5254    0.0000 C   0  0  0  0  0  0  0  0  0  0  0  0
   -2.5152   -2.0252    0.0000 C   0  0  0  0  0  0  0  0  0  0  0  0
   -3.8269   -2.7528    0.0000 C   0  0  0  0  0  0  0  0  0  0  0  0
   -3.8527   -4.2526    0.0000 O   0  0  0  0  0  0  0  0  0  0  0  0
   -1.1776    0.2021    0.0000 C   0  0  0  0  0  0  0  0  0  0  0  0
   -1.2034   -1.2977    0.0000 O   0  0  0  0  0  0  0  0  0  0  0  0
    0.1083   -0.5701    0.0000 C   0  0  0  0  0  0  0  0  0  0  0  0
    1.4200    0.1574    0.0000 C   0  0  0  0  0  0  0  0  0  0  0  0
    1.4458    1.6572    0.0000 C   0  0  0  0  0  0  0  0  0  0  0  0
    0.1599    2.4294    0.0000 O   0  0  0  0  0  0  0  0  0  0  0  0
   -1.1518    1.7019    0.0000 C   0  0  0  0  0  0  0  0  0  0  0  0
   -2.4378    2.4741    0.0000 C   0  0  0  0  0  0  0  0  0  0  0  0
   -3.7495    1.7466    0.0000 C   0  0  0  0  0  0  0  0  0  0  0  0
   -5.0355    2.5188    0.0000 C   0  0  0  0  0  0  0  0  0  0  0  0
   -5.0097    4.0186    0.0000 C   0  0  0  0  0  0  0  0  0  0  0  0
   -6.3472    1.7912    0.0000 C   0  0  0  0  0  0  0  0  0  0  0  0
    2.7576    2.3847    0.0000 C   0  0  0  0  0  0  0  0  0  0  0  0
    2.7834    3.8845    0.0000 C   0  0  0  0  0  0  0  0  0  0  0  0
    4.0435    1.6125    0.0000 C   0  0  0  0  0  0  0  0  0  0  0  0
    4.0177    0.1127    0.0000 C   0  0  0  0  0  0  0  0  0  0  0  0
    5.3037   -0.6595    0.0000 C   0  0  0  0  0  0  0  0  0  0  0  0
    6.6154    0.0681    0.0000 C   0  0  0  0  0  0  0  0  0  0  0  0
    7.9014   -0.7042    0.0000 C   0  0  0  0  0  0  0  0  0  0  0  0
    6.6412    1.5678    0.0000 C   0  0  0  0  0  0  0  0  0  0  0  0
    5.2779   -2.1593    0.0000 C   0  0  0  0  0  0  0  0  0  0  0  0
    3.9661   -2.8868    0.0000 C   0  0  0  0  0  0  0  0  0  0  0  0
    2.6802   -2.1146    0.0000 C   0  0  0  0  0  0  0  0  0  0  0  0
    1.3685   -2.8421    0.0000 C   0  0  0  0  0  0  0  0  0  0  0  0
    2.7060   -0.6148    0.0000 C   0  0  0  0  0  0  0  0  0  0  0  0
  1  2  1  0
  2  3  2  0
  3  4  1  0
  4  5  2  0
  5  6  1  0
  6  7  2  0
  7  8  1  0
  5  9  1  0
  9 10  1  6
  9 11  1  0
 11 12  1  0
 12 13  2  0
 13 14  1  0
 14 15  1  0
 15 16  1  1
 16 17  1  0
 17 18  1  6
 18 19  1  0
 18 20  1  0
 13 21  1  0
 21 22  1  0
 21 23  2  0
 23 24  1  0
 24 25  2  0
 25 26  1  0
 26 27  1  0
 26 28  1  0
 25 29  1  0
 29 30  2  0
 30 31  1  0
 31 32  1  0
 31 33  2  0
  7  2  1  0
 15  9  1  0
 33 24  1  0
 17  4  1  0
 33 12  1  0
M  END
>  <identifier>  (344) 
CNP0147931.1

>  <canonical_smiles>  (344) 
CC1=CC2=C(C=C1O)[C@]1(O)CC3=C(O[C@@H]1C[C@H]2C(C)C)C(C)=CC1=C(C(C)C)C=CC(C)=C31

>  <standard_inchi>  (344) 
InChI=1S/C30H36O3/c1-15(2)20-9-8-17(5)28-23(20)11-19(7)29-24(28)14-30(32)25-13-26(31)18(6)10-22(25)21(16(3)4)12-27(30)33-29/h8-11,13,15-16,21,27,31-32H,12,14H2,1-7H3/t21-,27+,30+/m0/s1

>  <standard_inchi_key>  (344) 
DDVIVMMKNAZNJE-FXBCZQQTSA-N

>  <name>  (344) 
dicadalenol

>  <iupac_name>  (344) 
(1~{R},14~{R},16~{S})-8,16-diisopropyl-5,11,19-trimethyl-13-oxapentacyclo[12.8.0.0^{3,12}.0^{4,9}.0^{17,22}]docosa-3(12),4,6,8,10,17(22),18,20-octaene-1,20-diol

>  <annotation_level>  (344) 
5

>  <total_atom_count>  (344) 
69

>  <heavy_atom_count>  (344) 
33

>  <molecular_weight>  (344) 
444.62

>  <exact_molecular_weight>  (344) 
444.26645

>  <molecular_formula>  (344) 
C30H36O3

>  <alogp>  (344) 
6.93

>  <topological_polar_surface_area>  (344) 
49.69

>  <rotatable_bond_count>  (344) 
2

>  <hydrogen_bond_acceptors>  (344) 
3

>  <hydrogen_bond_donors>  (344) 
2

>  <hydrogen_bond_acceptors_lipinski>  (344) 
3

>  <hydrogen_bond_donors_lipinski>  (344) 
2

>  <lipinski_rule_of_five_violations>  (344) 
1

>  <aromatic_rings_count>  (344) 
3

>  <qed_drug_likeliness>  (344) 
0.45

>  <formal_charge>  (344) 
0

>  <fractioncsp3>  (344) 
0.47

>  <number_of_minimal_rings>  (344) 
5

>  <van_der_walls_volume>  (344) 
428.02

>  <contains_sugar>  (344) 
False

>  <contains_ring_sugars>  (344) 
False

>  <contains_linear_sugars>  (344) 
False

>  <murcko_framework>  (344) 
O1c2ccc3ccccc3c2CC4c5ccccc5CCC14

>  <np_likeness>  (344) 
1.74

>  <chemical_class>  (344) 
Isoflavonoids

>  <chemical_sub_class>  (344) 
Isoflavans

>  <chemical_super_class>  (344) 
Phenylpropanoids and polyketides

>  <direct_parent_classification>  (344) 
Isoflavans

>  <np_classifier_pathway>  (344) 
Terpenoids

>  <np_classifier_superclass>  (344) 
Sesquiterpenoids

>  <np_classifier_class>  (344) 
Cadinane sesquiterpenoids

>  <np_classifier_is_glycoside>  (344) 
False

>  <organisms>  (344) 
Heterotheca inuloides

>  <collections>  (344) 
BIOFACQUIM|CMAUP (cCollective molecular activities of useful plants)|Latin America dataset|NPASS|Super Natural II

>  <dois>  (344) 
10.1021/np0005107

>  <synonyms>  (344) 
CHEMBL518495|Dicadalenol

>  <cas>  (344) 
nan

$$$$

     RDKit          2D

 16 17  0  0  0  0  0  0  0  0999 V2000
    2.7947   -2.6835    0.0000 C   0  0  0  0  0  0  0  0  0  0  0  0
    2.0088   -1.4059    0.0000 C   0  0  0  0  0  0  0  0  0  0  0  0
    0.5093   -1.4478    0.0000 C   0  0  0  0  0  0  0  0  0  0  0  0
   -0.2766   -0.1702    0.0000 C   0  0  0  0  0  0  0  0  0  0  0  0
   -1.7760   -0.2120    0.0000 C   0  0  0  0  0  0  0  0  0  0  0  0
   -2.4895   -1.5315    0.0000 C   0  0  0  0  0  0  0  0  0  0  0  0
   -3.9889   -1.5733    0.0000 C   0  0  0  0  0  0  0  0  0  0  0  0
   -1.7035   -2.8091    0.0000 C   0  0  0  0  0  0  0  0  0  0  0  0
   -2.5620    1.0656    0.0000 C   0  0  0  0  0  0  0  0  0  0  0  0
   -1.8485    2.3850    0.0000 C   0  0  0  0  0  0  0  0  0  0  0  0
   -0.3491    2.4269    0.0000 C   0  0  0  0  0  0  0  0  0  0  0  0
    0.3644    3.7464    0.0000 C   0  0  0  0  0  0  0  0  0  0  0  0
    0.4369    1.1493    0.0000 C   0  0  0  0  0  0  0  0  0  0  0  0
    1.9363    1.1912    0.0000 C   0  0  0  0  0  0  0  0  0  0  0  0
    2.7222   -0.0865    0.0000 C   0  0  0  0  0  0  0  0  0  0  0  0
    4.2216   -0.0446    0.0000 O   0  0  0  0  0  0  0  0  0  0  0  0
  1  2  1  0
  2  3  2  0
  3  4  1  0
  4  5  2  0
  5  6  1  0
  6  7  1  0
  6  8  1  0
  5  9  1  0
  9 10  2  0
 10 11  1  0
 11 12  1  0
 11 13  2  0
 13 14  1  0
 14 15  2  0
 15 16  1  0
 15  2  1  0
 13  4  1  0
M  END
>  <identifier>  (345) 
CNP0274097.0

>  <canonical_smiles>  (345) 
CC1=CC2=C(C(C)C)C=CC(C)=C2C=C1O

>  <standard_inchi>  (345) 
InChI=1S/C15H18O/c1-9(2)12-6-5-10(3)13-8-15(16)11(4)7-14(12)13/h5-9,16H,1-4H3

>  <standard_inchi_key>  (345) 
RIWNMJBJRPCUBX-UHFFFAOYSA-N

>  <name>  (345) 
7-Hydroxycadalene

>  <iupac_name>  (345) 
5-isopropyl-3,8-dimethyl-naphthalen-2-ol

>  <annotation_level>  (345) 
5

>  <total_atom_count>  (345) 
34

>  <heavy_atom_count>  (345) 
16

>  <molecular_weight>  (345) 
214.31

>  <exact_molecular_weight>  (345) 
214.13577

>  <molecular_formula>  (345) 
C15H18O

>  <alogp>  (345) 
4.29

>  <topological_polar_surface_area>  (345) 
20.23

>  <rotatable_bond_count>  (345) 
1

>  <hydrogen_bond_acceptors>  (345) 
1

>  <hydrogen_bond_donors>  (345) 
1

>  <hydrogen_bond_acceptors_lipinski>  (345) 
1

>  <hydrogen_bond_donors_lipinski>  (345) 
1

>  <lipinski_rule_of_five_violations>  (345) 
0

>  <aromatic_rings_count>  (345) 
2

>  <qed_drug_likeliness>  (345) 
0.75

>  <formal_charge>  (345) 
0

>  <fractioncsp3>  (345) 
0.33

>  <number_of_minimal_rings>  (345) 
2

>  <van_der_walls_volume>  (345) 
214.85

>  <contains_sugar>  (345) 
False

>  <contains_ring_sugars>  (345) 
False

>  <contains_linear_sugars>  (345) 
False

>  <murcko_framework>  (345) 
c1ccc2ccccc2c1

>  <np_likeness>  (345) 
0.87

>  <chemical_class>  (345) 
Prenol lipids

>  <chemical_sub_class>  (345) 
Sesquiterpenoids

>  <chemical_super_class>  (345) 
Lipids and lipid-like molecules

>  <direct_parent_classification>  (345) 
Sesquiterpenoids

>  <np_classifier_pathway>  (345) 
Terpenoids

>  <np_classifier_superclass>  (345) 
Sesquiterpenoids

>  <np_classifier_class>  (345) 
Cadinane sesquiterpenoids

>  <np_classifier_is_glycoside>  (345) 
False

>  <organisms>  (345) 
Aeschynanthus parvifolius|Agelas longissima|Alangium chinense|Alpinia pulcherrima|Artemisia rupestris|Artocarpus incisus|Bauhinia uruguayensis|Betula papyrifera|Bignonia unguiscati|Bombax ceiba|Bombax malabaricum|Boronia alata|Bufo bankorensis|Burkholderia gladioli|Caesalpinia pulcherrima|Carlina salicifolia|Ceiba pentandra|Chromodoris cavae|Cinnamomum philippinense|Cladosiphon okamuranus|Cornus capitata|Coronilla hyrcana|Crotalaria aridicola|Cyathus intermedius|Cyperus capitatus|Delphinium tricorne|Dipsacus japonicus|Echinocardium cordatum|Ephedra altissima|Eria siamensis|Erica cinerea|Haemanthus albiflos|Helleborus viridis|Heterotheca inuloides|Hordeum bulbosum|Ipomoea violacea|Iris sibirica|Isolona pilosa|Jatropha gossypiifolia|Keyserlingia koreensis|Lactarius torminosus|Lecanora sulphurata|Litsea nitida|Lobelia langeana|Lychnophora ericoides|Magnolia henryi|Maytenus emarginata|Micromelum falcatum|Mocis latipes|Mycale tenuis|Mycosphaerella nawae|Nissolia fruticosa|Peltophorum dubium|Penicilliopsis clavariiformis|Phoma asparagi|Prunus pseudocerasus|Pycnothymus rigidus|Rhizophagus intraradices|Salvia miniata|Sibiraea angustata|Streptoalloteichus tenebrarius|Streptomyces aureomonopodiales|Streptomyces sakaiensis|Symplocos glomerata|Tamarix dioica|Thelepus setosus|Thespesia populnea|Thespesia populnea L.Soland.Ex Coor|Tripterygium wilfordii|Umbilicaria papulosa|Valeriana officinalis|Vernonia aurea|Xanthium canadense

>  <collections>  (345) 
Australian natural products|BIOFACQUIM|CMAUP (cCollective molecular activities of useful plants)|KNApSaCK|Latin America dataset|NPACT|NPASS|Phyto4Health|Super Natural II|TCMDB-Taiwan (Traditional Chinese Medicine database)|TCMID (Traditional Chinese Medicine Integrated Database)|TIPdb (database of Taiwan indigenous plants)|UNPD (Universal Natural Products Database)|VietHerb|ZINC NP

>  <dois>  (345) 
10.1021/np0005107|10.1021/np4000747|10.1021/np800055q|10.1071/ch9651111

>  <synonyms>  (345) 
2102-75-2|3|8-dimethyl-5-propan-2-ylnaphthalen-2-ol|3|8-Dimethyl-5-isopropyl-2-naphthol|5-Isopropyl-3|8-dimethylnaphthalen-2-ol|7-Hydroxycadalin|starbld0015280|CHEMBL451475|DTXSID30345931|CHEBI:197068|RIWNMJBJRPCUBX-UHFFFAOYSA-N|5-Isopropyl-3|8-dimethyl-2-naphthol|AKOS040761245|7-hydroxycadalene

>  <cas>  (345) 
2102-75-2

$$$$

     RDKit          2D

 17 18  0  0  0  0  0  0  0  0999 V2000
   -7.0027   -0.7299    0.0000 C   0  0  0  0  0  0  0  0  0  0  0  0
   -5.6654   -0.0504    0.0000 C   0  0  0  0  0  0  0  0  0  0  0  0
   -5.5853    1.4475    0.0000 C   0  0  0  0  0  0  0  0  0  0  0  0
   -4.4083   -0.8687    0.0000 C   0  0  0  0  0  0  0  0  0  0  0  0
   -3.0710   -0.1892    0.0000 C   0  0  0  0  0  0  0  0  0  0  0  0
   -1.8139   -1.0075    0.0000 O   0  0  0  0  0  0  0  0  0  0  0  0
   -0.4767   -0.3279    0.0000 C   0  0  0  0  0  0  0  0  0  0  0  0
   -0.3966    1.1699    0.0000 C   0  0  0  0  0  0  0  0  0  0  0  0
    0.9407    1.8494    0.0000 C   0  0  0  0  0  0  0  0  0  0  0  0
    2.1978    1.0311    0.0000 C   0  0  0  0  0  0  0  0  0  0  0  0
    3.5351    1.7107    0.0000 C   0  0  0  0  0  0  0  0  0  0  0  0
    4.7922    0.8923    0.0000 C   0  0  0  0  0  0  0  0  0  0  0  0
    4.7121   -0.6055    0.0000 C   0  0  0  0  0  0  0  0  0  0  0  0
    5.9692   -1.4238    0.0000 O   0  0  0  0  0  0  0  0  0  0  0  0
    3.3748   -1.2851    0.0000 O   0  0  0  0  0  0  0  0  0  0  0  0
    2.1177   -0.4667    0.0000 C   0  0  0  0  0  0  0  0  0  0  0  0
    0.7804   -1.1463    0.0000 C   0  0  0  0  0  0  0  0  0  0  0  0
  1  2  1  0
  2  3  1  0
  2  4  2  0
  4  5  1  0
  5  6  1  0
  6  7  1  0
  7  8  2  0
  8  9  1  0
  9 10  2  0
 10 11  1  0
 11 12  2  0
 12 13  1  0
 13 14  2  0
 13 15  1  0
 15 16  1  0
 16 17  2  0
 17  7  1  0
 16 10  1  0
M  END
>  <identifier>  (346) 
CNP0333382.0

>  <canonical_smiles>  (346) 
CC(C)=CCOC1=CC=C2C=CC(=O)OC2=C1

>  <standard_inchi>  (346) 
InChI=1S/C14H14O3/c1-10(2)7-8-16-12-5-3-11-4-6-14(15)17-13(11)9-12/h3-7,9H,8H2,1-2H3

>  <standard_inchi_key>  (346) 
SMHJTSOVVRGDEO-UHFFFAOYSA-N

>  <name>  (346) 
7-Prenyloxycoumarin

>  <iupac_name>  (346) 
7-(3-methylbut-2-enoxy)chromen-2-one

>  <annotation_level>  (346) 
5

>  <total_atom_count>  (346) 
31

>  <heavy_atom_count>  (346) 
17

>  <molecular_weight>  (346) 
230.26

>  <exact_molecular_weight>  (346) 
230.09429

>  <molecular_formula>  (346) 
C14H14O3

>  <alogp>  (346) 
3.14

>  <topological_polar_surface_area>  (346) 
39.44

>  <rotatable_bond_count>  (346) 
3

>  <hydrogen_bond_acceptors>  (346) 
3

>  <hydrogen_bond_donors>  (346) 
0

>  <hydrogen_bond_acceptors_lipinski>  (346) 
3

>  <hydrogen_bond_donors_lipinski>  (346) 
0

>  <lipinski_rule_of_five_violations>  (346) 
0

>  <aromatic_rings_count>  (346) 
2

>  <qed_drug_likeliness>  (346) 
0.60

>  <formal_charge>  (346) 
0

>  <fractioncsp3>  (346) 
0.21

>  <number_of_minimal_rings>  (346) 
2

>  <van_der_walls_volume>  (346) 
213.14

>  <contains_sugar>  (346) 
False

>  <contains_ring_sugars>  (346) 
False

>  <contains_linear_sugars>  (346) 
False

>  <murcko_framework>  (346) 
O1c2ccccc2C=CC1

>  <np_likeness>  (346) 
0.93

>  <chemical_class>  (346) 
Coumarins and derivatives

>  <chemical_sub_class>  (346) 
Coumarins and derivatives

>  <chemical_super_class>  (346) 
Phenylpropanoids and polyketides

>  <direct_parent_classification>  (346) 
Coumarins and derivatives

>  <np_classifier_pathway>  (346) 
Shikimates and Phenylpropanoids

>  <np_classifier_superclass>  (346) 
Coumarins

>  <np_classifier_class>  (346) 
Simple coumarins

>  <np_classifier_is_glycoside>  (346) 
False

>  <organisms>  (346) 
Asterolasia phebalioides|Brachyclados megalanthus|Camellia japonica|Daphne gnidium|Eucalyptus dives|Euodia vitiflora|Heracleum dissectum|Heterotheca inuloides|Macrococculus pomiferus|Melicope hayesii|Penstemon grandiflorus|Sophora flavescens|Talaromyces tardifaciens|Taraxacum laevigatum|Zanthoxylum spinosum

>  <collections>  (346) 
AfroMalariaDB|Australian natural products|BIOFACQUIM|CMAUP (cCollective molecular activities of useful plants)|ConMedNP|GNPS (Global Natural Products Social Molecular Networking)|InterBioScreen Ltd|KNApSaCK|Latin America dataset|NPASS|PubChem NPs|Specs Natural Products|Super Natural II|TCMDB-Taiwan (Traditional Chinese Medicine database)|TCMID (Traditional Chinese Medicine Integrated Database)|TIPdb (database of Taiwan indigenous plants)|UNPD (Universal Natural Products Database)|ZINC NP

>  <dois>  (346) 
10.1016/0305-1978(94)90036-1|10.1016/j.bse.2004.12.020|10.1016/s0031-9422(98)00720-1|10.1021/np0005107|10.1071/ch9722491

>  <synonyms>  (346) 
10387-50-5|NSC267697|7-Prenylumbelliferone|7-(3-methylbut-2-enoxy)chromen-2-one|CHEMBL156692|7-((3-Methylbut-2-en-1-yl)oxy)-2H-chromen-2-one|DIMETHYLALLYLUMBELLIFERONE| 0-|A-130|7-(Isopentenyloxy)coumarin|MLS001049095|SCHEMBL4898255|DTXSID50313213|SMHJTSOVVRGDEO-UHFFFAOYSA-N|HMS2271J13|7-(3|3-Dimethylallyloxy)Coumarin|HY-N7023|BDBM50361372|STK921054|7-(3-Methyl-2-butenyloxy) coumarin|AKOS001064505|MS-23306|SMR000386928|1ST164135|7-(3-METHYL-2-BUTENYLOXY)COUMARIN|DS-001640|CS-0101590|E88582|SR-01000234416|Z54658723|7-(3-METHYLBUT-2-EN-1-YL)OXYCHROMEN-2-ONE|2H-1-BENZOPYRAN-2-ONE|7-(3-METHYL-2-BUTEN-1-YL)OXY-

>  <cas>  (346) 
10387-50-5

$$$$

     RDKit          2D

 18 19  0  0  0  0  0  0  0  0999 V2000
   -0.2824    3.2411    0.0000 C   0  0  0  0  0  0  0  0  0  0  0  0
   -0.4551    1.7511    0.0000 C   0  0  0  0  0  0  0  0  0  0  0  0
   -1.8318    1.1556    0.0000 C   0  0  0  0  0  0  0  0  0  0  0  0
   -2.0044   -0.3344    0.0000 C   0  0  0  0  0  0  0  0  0  0  0  0
   -2.6763   -1.6756    0.0000 O   0  0  0  0  0  0  0  0  0  0  0  0
   -3.4419    0.0943    0.0000 C   0  0  0  0  0  0  0  0  0  0  0  0
   -4.5319   -0.9361    0.0000 C   0  0  0  0  0  0  0  0  0  0  0  0
   -3.7893    1.5535    0.0000 C   0  0  0  0  0  0  0  0  0  0  0  0
   -0.8004   -1.2290    0.0000 C   0  0  0  0  0  0  0  0  0  0  0  0
   -0.9730   -2.7190    0.0000 O   0  0  0  0  0  0  0  0  0  0  0  0
    0.5764   -0.6335    0.0000 C   0  0  0  0  0  0  0  0  0  0  0  0
    1.7805   -1.5280    0.0000 C   0  0  0  0  0  0  0  0  0  0  0  0
    3.1572   -0.9325    0.0000 C   0  0  0  0  0  0  0  0  0  0  0  0
    4.3613   -1.8270    0.0000 C   0  0  0  0  0  0  0  0  0  0  0  0
    3.3298    0.5576    0.0000 C   0  0  0  0  0  0  0  0  0  0  0  0
    4.7065    1.1531    0.0000 O   0  0  0  0  0  0  0  0  0  0  0  0
    2.1257    1.4521    0.0000 C   0  0  0  0  0  0  0  0  0  0  0  0
    0.7490    0.8566    0.0000 C   0  0  0  0  0  0  0  0  0  0  0  0
  1  2  1  0
  2  3  2  0
  3  4  1  0
  4  5  1  1
  4  6  1  0
  6  7  1  0
  6  8  1  0
  4  9  1  0
  9 10  2  0
  9 11  1  0
 11 12  2  0
 12 13  1  0
 13 14  1  0
 13 15  2  0
 15 16  1  0
 15 17  1  0
 17 18  2  0
 18  2  1  0
 18 11  1  0
M  END
>  <identifier>  (347) 
CNP0208377.1

>  <canonical_smiles>  (347) 
CC1=C[C@@](O)(C(C)C)C(=O)C2=CC(C)=C(O)C=C12

>  <standard_inchi>  (347) 
InChI=1S/C15H18O3/c1-8(2)15(18)7-10(4)11-6-13(16)9(3)5-12(11)14(15)17/h5-8,16,18H,1-4H3/t15-/m1/s1

>  <standard_inchi_key>  (347) 
KXIUPESKOQTYRQ-OAHLLOKOSA-N

>  <name>  (347) 
(2S)-2,6-dihydroxy-4,7-dimethyl-2-propan-2-ylnaphthalen-1-one

>  <iupac_name>  (347) 
(2~{S})-2,6-dihydroxy-2-isopropyl-4,7-dimethyl-naphthalen-1-one

>  <annotation_level>  (347) 
5

>  <total_atom_count>  (347) 
36

>  <heavy_atom_count>  (347) 
18

>  <molecular_weight>  (347) 
246.31

>  <exact_molecular_weight>  (347) 
246.12559

>  <molecular_formula>  (347) 
C15H18O3

>  <alogp>  (347) 
2.69

>  <topological_polar_surface_area>  (347) 
57.53

>  <rotatable_bond_count>  (347) 
1

>  <hydrogen_bond_acceptors>  (347) 
3

>  <hydrogen_bond_donors>  (347) 
2

>  <hydrogen_bond_acceptors_lipinski>  (347) 
3

>  <hydrogen_bond_donors_lipinski>  (347) 
2

>  <lipinski_rule_of_five_violations>  (347) 
0

>  <aromatic_rings_count>  (347) 
1

>  <qed_drug_likeliness>  (347) 
0.80

>  <formal_charge>  (347) 
0

>  <fractioncsp3>  (347) 
0.40

>  <number_of_minimal_rings>  (347) 
2

>  <van_der_walls_volume>  (347) 
234.58

>  <contains_sugar>  (347) 
False

>  <contains_ring_sugars>  (347) 
False

>  <contains_linear_sugars>  (347) 
False

>  <murcko_framework>  (347) 
c1ccc2c(c1)C=CCC2

>  <np_likeness>  (347) 
1.81

>  <chemical_class>  (347) 
Naphthalenes

>  <chemical_sub_class>  (347) 
Naphthols and derivatives

>  <chemical_super_class>  (347) 
Benzenoids

>  <direct_parent_classification>  (347) 
Naphthols and derivatives

>  <np_classifier_pathway>  (347) 
Terpenoids

>  <np_classifier_superclass>  (347) 
Sesquiterpenoids

>  <np_classifier_class>  (347) 
Cadinane sesquiterpenoids

>  <np_classifier_is_glycoside>  (347) 
False

>  <organisms>  (347) 
Heterotheca inuloides

>  <collections>  (347) 
BIOFACQUIM|CMAUP (cCollective molecular activities of useful plants)|Latin America dataset|NPASS|Super Natural II

>  <dois>  (347) 
10.1021/np0005107

>  <synonyms>  (347) 
CHEMBL461485|3 7-dihydroxy-3(4H)-isocadalen-4-one

>  <cas>  (347) 
nan

$$$$

     RDKit          2D

 33 35  0  0  0  0  0  0  0  0999 V2000
   -1.2841   -1.7970    0.0000 C   0  0  0  0  0  0  0  0  0  0  0  0
   -0.5703   -0.4778    0.0000 C   0  0  0  0  0  0  0  0  0  0  0  0
    0.9292   -0.4363    0.0000 C   0  0  0  0  0  0  0  0  0  0  0  0
    0.5261    1.0085    0.0000 C   0  0  0  0  0  0  0  0  0  0  0  0
    0.7875   -1.9296    0.0000 C   0  0  0  0  0  0  0  0  0  0  0  0
    2.4286   -0.3949    0.0000 C   0  0  0  0  0  0  0  0  0  0  0  0
    2.2306    1.0920    0.0000 C   0  0  0  0  0  0  0  0  0  0  0  0
    0.8440    1.6640    0.0000 C   0  0  0  0  0  0  0  0  0  0  0  0
   -0.3447    0.7492    0.0000 N   0  0  0  0  0  0  0  0  0  0  0  0
   -1.7314    1.3212    0.0000 C   0  0  0  0  0  0  0  0  0  0  0  0
   -1.9293    2.8080    0.0000 O   0  0  0  0  0  0  0  0  0  0  0  0
   -2.9201    0.4063    0.0000 C   0  0  0  0  0  0  0  0  0  0  0  0
   -2.7221   -1.0806    0.0000 O   0  0  0  0  0  0  0  0  0  0  0  0
   -4.3067    0.9783    0.0000 C   0  0  0  0  0  0  0  0  0  0  0  0
   -5.4954    0.0634    0.0000 C   0  0  0  0  0  0  0  0  0  0  0  0
   -6.8821    0.6354    0.0000 C   0  0  0  0  0  0  0  0  0  0  0  0
   -8.0708   -0.2794    0.0000 C   0  0  0  0  0  0  0  0  0  0  0  0
   -7.8728   -1.7663    0.0000 C   0  0  0  0  0  0  0  0  0  0  0  0
   -6.4862   -2.3383    0.0000 C   0  0  0  0  0  0  0  0  0  0  0  0
   -5.2975   -1.4235    0.0000 C   0  0  0  0  0  0  0  0  0  0  0  0
    0.6460    3.1509    0.0000 C   0  0  0  0  0  0  0  0  0  0  0  0
    1.8347    4.0658    0.0000 O   0  0  0  0  0  0  0  0  0  0  0  0
   -0.7406    3.7229    0.0000 O   0  0  0  0  0  0  0  0  0  0  0  0
    2.3131   -1.8904    0.0000 C   0  0  0  0  0  0  0  0  0  0  0  0
    1.1406   -2.8259    0.0000 O   0  0  0  0  0  0  0  0  0  0  0  0
    3.6997   -2.4624    0.0000 N   0  0  0  0  0  0  0  0  0  0  0  0
    4.6722   -1.3204    0.0000 C   0  0  0  0  0  0  0  0  0  0  0  0
    6.1717   -1.2789    0.0000 C   0  0  0  0  0  0  0  0  0  0  0  0
    6.9573   -2.5568    0.0000 O   0  0  0  0  0  0  0  0  0  0  0  0
    6.8855    0.0403    0.0000 C   0  0  0  0  0  0  0  0  0  0  0  0
    6.0999    1.3181    0.0000 C   0  0  0  0  0  0  0  0  0  0  0  0
    4.6005    1.2767    0.0000 C   0  0  0  0  0  0  0  0  0  0  0  0
    3.8866   -0.0426    0.0000 C   0  0  0  0  0  0  0  0  0  0  0  0
  1  2  2  0
  2  3  1  0
  3  4  1  0
  3  5  1  0
  3  6  1  0
  6  7  1  6
  8  7  1  6
  8  9  1  0
  9 10  1  0
 10 11  2  0
 10 12  1  0
 12 13  1  1
 12 14  1  0
 14 15  1  0
 15 16  2  0
 16 17  1  0
 17 18  2  0
 18 19  1  0
 19 20  2  0
  8 21  1  0
 21 22  2  0
 21 23  1  0
  6 24  1  0
 24 25  2  0
 24 26  1  0
 26 27  1  0
 27 28  2  0
 28 29  1  0
 28 30  1  0
 30 31  2  0
 31 32  1  0
 32 33  2  0
 33  6  1  0
 20 15  1  0
 33 27  1  0
M  END
>  <identifier>  (348) 
CNP0080283.1

>  <canonical_smiles>  (348) 
C=CC(C)(C)[C@]1(C[C@H](NC(=O)[C@@H](O)CC2=CC=CC=C2)C(=O)O)C(=O)NC2=C(O)C=CC=C21

>  <standard_inchi>  (348) 
InChI=1S/C25H28N2O6/c1-4-24(2,3)25(16-11-8-12-18(28)20(16)27-23(25)33)14-17(22(31)32)26-21(30)19(29)13-15-9-6-5-7-10-15/h4-12,17,19,28-29H,1,13-14H2,2-3H3,(H,26,30)(H,27,33)(H,31,32)/t17-,19-,25-/m0/s1

>  <standard_inchi_key>  (348) 
TXVLBRMNUYNGCT-KMEZTADASA-N

>  <name>  (348) 
Seco-PF1233 B carboxylic acid

>  <iupac_name>  (348) 
(2~{S})-3-[(3~{S})-3-(1,1-dimethylallyl)-7-hydroxy-2-oxo-indolin-3-yl]-2-[[(2~{S})-2-hydroxy-3-phenyl-propanoyl]amino]propanoic acid

>  <annotation_level>  (348) 
5

>  <total_atom_count>  (348) 
61

>  <heavy_atom_count>  (348) 
33

>  <molecular_weight>  (348) 
452.51

>  <exact_molecular_weight>  (348) 
452.19474

>  <molecular_formula>  (348) 
C25H28N2O6

>  <alogp>  (348) 
2.36

>  <topological_polar_surface_area>  (348) 
135.96

>  <rotatable_bond_count>  (348) 
9

>  <hydrogen_bond_acceptors>  (348) 
5

>  <hydrogen_bond_donors>  (348) 
5

>  <hydrogen_bond_acceptors_lipinski>  (348) 
5

>  <hydrogen_bond_donors_lipinski>  (348) 
5

>  <lipinski_rule_of_five_violations>  (348) 
0

>  <aromatic_rings_count>  (348) 
2

>  <qed_drug_likeliness>  (348) 
0.29

>  <formal_charge>  (348) 
0

>  <fractioncsp3>  (348) 
0.32

>  <number_of_minimal_rings>  (348) 
3

>  <van_der_walls_volume>  (348) 
410.81

>  <contains_sugar>  (348) 
False

>  <contains_ring_sugars>  (348) 
False

>  <contains_linear_sugars>  (348) 
False

>  <murcko_framework>  (348) 
c1ccc(cc1)CCCNCCC2c3ccccc3NC2

>  <np_likeness>  (348) 
1.36

>  <chemical_class>  (348) 
Carboxylic acids and derivatives

>  <chemical_sub_class>  (348) 
Amino acids, peptides, and analogues

>  <chemical_super_class>  (348) 
Organic acids and derivatives

>  <direct_parent_classification>  (348) 
N-acyl-alpha amino acids

>  <np_classifier_pathway>  (348) 
Amino acids and Peptides

>  <np_classifier_superclass>  (348) 
Small peptides

>  <np_classifier_class>  (348) 
Dipeptides

>  <np_classifier_is_glycoside>  (348) 
False

>  <organisms>  (348) 
Aspergillus sp.|Aspergillus sp. MEXU 27854|Aspergillus sp. MEXU 27856

>  <collections>  (348) 
BIOFACQUIM|CMNPD|Latin America dataset|NPAtlas

>  <dois>  (348) 
10.1021/acs.jnatprod.7b00331|10.1039/c8np00092a

>  <synonyms>  (348) 
CHEMBL4209418|CHEBI:208061|(2S)-3-(3S)-7-hydroxy-3-(2-methylbut-3-en-2-yl)-2-oxo-1H-indol-3-yl-2-(2S)-2-hydroxy-3-phenylpropanoylaminopropanoic acid|seco-PF1233 B carboxylic acid

>  <cas>  (348) 
nan

$$$$

     RDKit          2D

 16 17  0  0  0  0  0  0  0  0999 V2000
    0.3644   -3.7464    0.0000 C   0  0  0  0  0  0  0  0  0  0  0  0
   -0.3491   -2.4269    0.0000 C   0  0  0  0  0  0  0  0  0  0  0  0
   -1.8485   -2.3850    0.0000 C   0  0  0  0  0  0  0  0  0  0  0  0
   -2.5620   -1.0656    0.0000 C   0  0  0  0  0  0  0  0  0  0  0  0
   -1.7760    0.2120    0.0000 C   0  0  0  0  0  0  0  0  0  0  0  0
   -2.4895    1.5315    0.0000 C   0  0  0  0  0  0  0  0  0  0  0  0
   -3.9889    1.5733    0.0000 C   0  0  0  0  0  0  0  0  0  0  0  0
   -1.7035    2.8091    0.0000 C   0  0  0  0  0  0  0  0  0  0  0  0
   -0.2766    0.1702    0.0000 C   0  0  0  0  0  0  0  0  0  0  0  0
    0.5093    1.4478    0.0000 C   0  0  0  0  0  0  0  0  0  0  0  0
    2.0088    1.4059    0.0000 C   0  0  0  0  0  0  0  0  0  0  0  0
    2.7947    2.6835    0.0000 C   0  0  0  0  0  0  0  0  0  0  0  0
    2.7222    0.0865    0.0000 C   0  0  0  0  0  0  0  0  0  0  0  0
    4.2216    0.0446    0.0000 O   0  0  0  0  0  0  0  0  0  0  0  0
    1.9363   -1.1912    0.0000 C   0  0  0  0  0  0  0  0  0  0  0  0
    0.4369   -1.1493    0.0000 C   0  0  0  0  0  0  0  0  0  0  0  0
  1  2  1  0
  2  3  2  0
  3  4  1  0
  4  5  1  0
  5  6  1  1
  6  7  1  0
  6  8  1  0
  5  9  1  0
  9 10  2  0
 10 11  1  0
 11 12  1  0
 11 13  2  0
 13 14  1  0
 13 15  1  0
 15 16  2  0
 16  2  1  0
 16  9  1  0
M  END
>  <identifier>  (349) 
CNP0265022.1

>  <canonical_smiles>  (349) 
CC1=CC[C@@H](C(C)C)C2=CC(C)=C(O)C=C12

>  <standard_inchi>  (349) 
InChI=1S/C15H20O/c1-9(2)12-6-5-10(3)13-8-15(16)11(4)7-14(12)13/h5,7-9,12,16H,6H2,1-4H3/t12-/m0/s1

>  <standard_inchi_key>  (349) 
YZHICMXANUYYLB-LBPRGKRZSA-N

>  <name>  (349) 
72943-94-3

>  <iupac_name>  (349) 
(5~{S})-5-isopropyl-3,8-dimethyl-5,6-dihydronaphthalen-2-ol

>  <annotation_level>  (349) 
5

>  <total_atom_count>  (349) 
36

>  <heavy_atom_count>  (349) 
16

>  <molecular_weight>  (349) 
216.32

>  <exact_molecular_weight>  (349) 
216.15142

>  <molecular_formula>  (349) 
C15H20O

>  <alogp>  (349) 
4.25

>  <topological_polar_surface_area>  (349) 
20.23

>  <rotatable_bond_count>  (349) 
1

>  <hydrogen_bond_acceptors>  (349) 
1

>  <hydrogen_bond_donors>  (349) 
1

>  <hydrogen_bond_acceptors_lipinski>  (349) 
1

>  <hydrogen_bond_donors_lipinski>  (349) 
1

>  <lipinski_rule_of_five_violations>  (349) 
0

>  <aromatic_rings_count>  (349) 
1

>  <qed_drug_likeliness>  (349) 
0.74

>  <formal_charge>  (349) 
0

>  <fractioncsp3>  (349) 
0.47

>  <number_of_minimal_rings>  (349) 
2

>  <van_der_walls_volume>  (349) 
222.47

>  <contains_sugar>  (349) 
False

>  <contains_ring_sugars>  (349) 
False

>  <contains_linear_sugars>  (349) 
False

>  <murcko_framework>  (349) 
c1ccc2c(c1)C=CCC2

>  <np_likeness>  (349) 
2.05

>  <chemical_class>  (349) 
Prenol lipids

>  <chemical_sub_class>  (349) 
Sesquiterpenoids

>  <chemical_super_class>  (349) 
Lipids and lipid-like molecules

>  <direct_parent_classification>  (349) 
Sesquiterpenoids

>  <np_classifier_pathway>  (349) 
Terpenoids

>  <np_classifier_superclass>  (349) 
Sesquiterpenoids

>  <np_classifier_class>  (349) 
Cadinane sesquiterpenoids

>  <np_classifier_is_glycoside>  (349) 
False

>  <organisms>  (349) 
Heterotheca inuloides

>  <collections>  (349) 
BIOFACQUIM|CMAUP (cCollective molecular activities of useful plants)|Latin America dataset|NPACT|NPASS|Super Natural II|ZINC NP

>  <dois>  (349) 
10.1021/np0005107

>  <synonyms>  (349) 
(5S)-3|8-Dimethyl-5-propan-2-yl-5|6-dihydronaphthalen-2-ol|2-Naphthalenol| 5|6-dihydro-3|8-dimethyl-5-(1-methylethyl)-| (5S)-|CHEMBL452210|DTXSID40436905|7-hydroxy-4\u0152\u00b1H-3 4-dihydrocadalene

>  <cas>  (349) 
nan

$$$$

     RDKit          2D

 17 18  0  0  0  0  0  0  0  0999 V2000
   -4.4016   -1.9713    0.0000 C   0  0  0  0  0  0  0  0  0  0  0  0
   -3.2400   -1.0222    0.0000 C   0  0  0  0  0  0  0  0  0  0  0  0
   -3.4811    0.4583    0.0000 C   0  0  0  0  0  0  0  0  0  0  0  0
   -2.3196    1.4073    0.0000 C   0  0  0  0  0  0  0  0  0  0  0  0
   -0.9169    0.8759    0.0000 C   0  0  0  0  0  0  0  0  0  0  0  0
   -0.6757   -0.6046    0.0000 C   0  0  0  0  0  0  0  0  0  0  0  0
   -1.8373   -1.5537    0.0000 C   0  0  0  0  0  0  0  0  0  0  0  0
    0.7270   -1.1360    0.0000 C   0  0  0  0  0  0  0  0  0  0  0  0
    0.9681   -2.6165    0.0000 O   0  0  0  0  0  0  0  0  0  0  0  0
    1.8885   -0.1870    0.0000 C   0  0  0  0  0  0  0  0  0  0  0  0
    3.2913   -0.7184    0.0000 C   0  0  0  0  0  0  0  0  0  0  0  0
    3.5324   -2.1989    0.0000 C   0  0  0  0  0  0  0  0  0  0  0  0
    4.4528    0.2306    0.0000 C   0  0  0  0  0  0  0  0  0  0  0  0
    1.6474    1.2935    0.0000 C   0  0  0  0  0  0  0  0  0  0  0  0
    0.2447    1.8249    0.0000 C   0  0  0  0  0  0  0  0  0  0  0  0
   -0.8916    2.8041    0.0000 C   0  0  0  0  0  0  0  0  0  0  0  0
    1.0117    3.1140    0.0000 O   0  0  0  0  0  0  0  0  0  0  0  0
  1  2  1  0
  2  3  2  0
  3  4  1  0
  4  5  2  0
  5  6  1  0
  6  7  2  0
  6  8  1  0
  8  9  2  0
  8 10  1  0
 10 11  1  0
 11 12  1  0
 11 13  1  0
 10 14  2  0
 14 15  1  0
 15 16  1  1
 15 17  1  0
  7  2  1  0
 15  5  1  0
M  END
>  <identifier>  (350) 
CNP0181908.1

>  <canonical_smiles>  (350) 
CC1=CC=C2C(=C1)C(=O)C(C(C)C)=C[C@@]2(C)O

>  <standard_inchi>  (350) 
InChI=1S/C15H18O2/c1-9(2)12-8-15(4,17)13-6-5-10(3)7-11(13)14(12)16/h5-9,17H,1-4H3/t15-/m1/s1

>  <standard_inchi_key>  (350) 
CNZCFICJJNMIPR-OAHLLOKOSA-N

>  <name>  (350) 
(4R)-4-hydroxy-4,7-dimethyl-2-propan-2-ylnaphthalen-1-one

>  <iupac_name>  (350) 
(4~{R})-4-hydroxy-2-isopropyl-4,7-dimethyl-naphthalen-1-one

>  <annotation_level>  (350) 
5

>  <total_atom_count>  (350) 
35

>  <heavy_atom_count>  (350) 
17

>  <molecular_weight>  (350) 
230.31

>  <exact_molecular_weight>  (350) 
230.13068

>  <molecular_formula>  (350) 
C15H18O2

>  <alogp>  (350) 
2.98

>  <topological_polar_surface_area>  (350) 
37.30

>  <rotatable_bond_count>  (350) 
1

>  <hydrogen_bond_acceptors>  (350) 
2

>  <hydrogen_bond_donors>  (350) 
1

>  <hydrogen_bond_acceptors_lipinski>  (350) 
2

>  <hydrogen_bond_donors_lipinski>  (350) 
1

>  <lipinski_rule_of_five_violations>  (350) 
0

>  <aromatic_rings_count>  (350) 
1

>  <qed_drug_likeliness>  (350) 
0.80

>  <formal_charge>  (350) 
0

>  <fractioncsp3>  (350) 
0.40

>  <number_of_minimal_rings>  (350) 
2

>  <van_der_walls_volume>  (350) 
226.02

>  <contains_sugar>  (350) 
False

>  <contains_ring_sugars>  (350) 
False

>  <contains_linear_sugars>  (350) 
False

>  <murcko_framework>  (350) 
c1ccc2c(c1)CC=CC2

>  <np_likeness>  (350) 
1.52

>  <chemical_class>  (350) 
Naphthalenes

>  <chemical_sub_class>  (350) 
Naphthalenes

>  <chemical_super_class>  (350) 
Benzenoids

>  <direct_parent_classification>  (350) 
Naphthalenes

>  <np_classifier_pathway>  (350) 
Terpenoids

>  <np_classifier_superclass>  (350) 
Sesquiterpenoids

>  <np_classifier_class>  (350) 
Cadinane sesquiterpenoids

>  <np_classifier_is_glycoside>  (350) 
False

>  <organisms>  (350) 
Heterotheca inuloides

>  <collections>  (350) 
BIOFACQUIM|Latin America dataset|NPASS

>  <dois>  (350) 
10.1021/acs.jnatprod.5b00571|10.1021/np0005107

>  <synonyms>  (350) 
CHEMBL3740415|1\u0152\u00b1-hydroxy-1(4H)-isocadalen-4-one

>  <cas>  (350) 
nan

$$$$

     RDKit          2D

 18 19  0  0  0  0  0  0  0  0999 V2000
   -1.9260    3.8846    0.0000 C   0  0  0  0  0  0  0  0  0  0  0  0
   -0.8965    2.7937    0.0000 C   0  0  0  0  0  0  0  0  0  0  0  0
    0.5630    3.1397    0.0000 C   0  0  0  0  0  0  0  0  0  0  0  0
   -1.3266    1.3567    0.0000 C   0  0  0  0  0  0  0  0  0  0  0  0
   -2.7861    1.0106    0.0000 C   0  0  0  0  0  0  0  0  0  0  0  0
   -3.2162   -0.4264    0.0000 C   0  0  0  0  0  0  0  0  0  0  0  0
   -2.1868   -1.5174    0.0000 C   0  0  0  0  0  0  0  0  0  0  0  0
   -3.4399   -2.3418    0.0000 C   0  0  0  0  0  0  0  0  0  0  0  0
   -1.5925   -2.8947    0.0000 O   0  0  0  0  0  0  0  0  0  0  0  0
   -0.7272   -1.1713    0.0000 C   0  0  0  0  0  0  0  0  0  0  0  0
    0.3022   -2.2623    0.0000 C   0  0  0  0  0  0  0  0  0  0  0  0
    1.7618   -1.9162    0.0000 C   0  0  0  0  0  0  0  0  0  0  0  0
    2.1919   -0.4792    0.0000 C   0  0  0  0  0  0  0  0  0  0  0  0
    3.6514   -0.1332    0.0000 C   0  0  0  0  0  0  0  0  0  0  0  0
    4.0815    1.3039    0.0000 O   0  0  0  0  0  0  0  0  0  0  0  0
    4.6809   -1.2241    0.0000 O   0  0  0  0  0  0  0  0  0  0  0  0
    1.1624    0.6117    0.0000 C   0  0  0  0  0  0  0  0  0  0  0  0
   -0.2971    0.2657    0.0000 C   0  0  0  0  0  0  0  0  0  0  0  0
  1  2  1  0
  2  3  1  0
  4  2  1  1
  4  5  1  0
  5  6  1  0
  6  7  1  0
  7  8  1  1
  7  9  1  0
  7 10  1  0
 10 11  2  0
 11 12  1  0
 12 13  2  0
 13 14  1  0
 14 15  2  0
 14 16  1  0
 13 17  1  0
 17 18  2  0
 18  4  1  0
 18 10  1  0
M  END
>  <identifier>  (351) 
CNP0399724.1

>  <canonical_smiles>  (351) 
CC(C)[C@@H]1CC[C@@](C)(O)C2=CC=C(C(=O)O)C=C21

>  <standard_inchi>  (351) 
InChI=1S/C15H20O3/c1-9(2)11-6-7-15(3,18)13-5-4-10(14(16)17)8-12(11)13/h4-5,8-9,11,18H,6-7H2,1-3H3,(H,16,17)/t11-,15+/m0/s1

>  <standard_inchi_key>  (351) 
WOURYSLHFFSMAH-XHDPSFHLSA-N

>  <name>  (351) 
(5R,8S)-5-hydroxy-5-methyl-8-propan-2-yl-7,8-dihydro-6H-naphthalene-2-carboxylic acid

>  <iupac_name>  (351) 
(1~{R},4~{S})-1-hydroxy-4-isopropyl-1-methyl-tetralin-6-carboxylic acid

>  <annotation_level>  (351) 
5

>  <total_atom_count>  (351) 
38

>  <heavy_atom_count>  (351) 
18

>  <molecular_weight>  (351) 
248.32

>  <exact_molecular_weight>  (351) 
248.14124

>  <molecular_formula>  (351) 
C15H20O3

>  <alogp>  (351) 
3.13

>  <topological_polar_surface_area>  (351) 
57.53

>  <rotatable_bond_count>  (351) 
2

>  <hydrogen_bond_acceptors>  (351) 
2

>  <hydrogen_bond_donors>  (351) 
2

>  <hydrogen_bond_acceptors_lipinski>  (351) 
2

>  <hydrogen_bond_donors_lipinski>  (351) 
2

>  <lipinski_rule_of_five_violations>  (351) 
0

>  <aromatic_rings_count>  (351) 
1

>  <qed_drug_likeliness>  (351) 
0.85

>  <formal_charge>  (351) 
0

>  <fractioncsp3>  (351) 
0.53

>  <number_of_minimal_rings>  (351) 
2

>  <van_der_walls_volume>  (351) 
240.07

>  <contains_sugar>  (351) 
False

>  <contains_ring_sugars>  (351) 
False

>  <contains_linear_sugars>  (351) 
False

>  <murcko_framework>  (351) 
c1ccc2c(c1)CCCC2

>  <np_likeness>  (351) 
1.75

>  <chemical_class>  (351) 
Prenol lipids

>  <chemical_sub_class>  (351) 
Sesquiterpenoids

>  <chemical_super_class>  (351) 
Lipids and lipid-like molecules

>  <direct_parent_classification>  (351) 
Sesquiterpenoids

>  <np_classifier_pathway>  (351) 
Terpenoids

>  <np_classifier_superclass>  (351) 
Sesquiterpenoids

>  <np_classifier_class>  (351) 
Cadinane sesquiterpenoids

>  <np_classifier_is_glycoside>  (351) 
False

>  <organisms>  (351) 
Heterotheca inuloides

>  <collections>  (351) 
BIOFACQUIM|CMAUP (cCollective molecular activities of useful plants)|Latin America dataset|NPASS|Super Natural II

>  <dois>  (351) 
10.1021/np0005107

>  <synonyms>  (351) 
CHEMBL459412|WOURYSLHFFSMAH-XHDPSFHLSA-|InChI=1\/C15H20O3\/c1-9(2)11-6-7-15(3|18)13-5-4-10(14(16)17)8-12(11)13\/h4-5|8-9|11|18H|6-7H2|1-3H3|(H|16|17)\/t11-|15+\/m0\/s1|1\u0152\u00b1-hydroxy-4\u0152\u00b1H-1 2 3 4-tetrahydrocadalen-15-oic acid

>  <cas>  (351) 
nan

$$$$

     RDKit          2D

 32 34  0  0  0  0  0  0  0  0999 V2000
   -1.1447   -1.8304    0.0000 C   0  0  0  0  0  0  0  0  0  0  0  0
   -0.3760   -0.5423    0.0000 C   0  0  0  0  0  0  0  0  0  0  0  0
    1.1239   -0.5640    0.0000 C   0  0  0  0  0  0  0  0  0  0  0  0
    0.7820    0.8965    0.0000 C   0  0  0  0  0  0  0  0  0  0  0  0
    0.9195   -2.0500    0.0000 C   0  0  0  0  0  0  0  0  0  0  0  0
    2.6237   -0.5857    0.0000 C   0  0  0  0  0  0  0  0  0  0  0  0
    2.4885    0.9082    0.0000 C   0  0  0  0  0  0  0  0  0  0  0  0
    1.1271    1.5381    0.0000 C   0  0  0  0  0  0  0  0  0  0  0  0
   -0.0990    0.6740    0.0000 N   0  0  0  0  0  0  0  0  0  0  0  0
   -1.4604    1.3039    0.0000 C   0  0  0  0  0  0  0  0  0  0  0  0
   -1.5956    2.7978    0.0000 O   0  0  0  0  0  0  0  0  0  0  0  0
   -2.6865    0.4398    0.0000 C   0  0  0  0  0  0  0  0  0  0  0  0
   -2.5513   -1.0541    0.0000 O   0  0  0  0  0  0  0  0  0  0  0  0
   -4.0479    1.0696    0.0000 C   0  0  0  0  0  0  0  0  0  0  0  0
   -5.2740    0.2056    0.0000 C   0  0  0  0  0  0  0  0  0  0  0  0
   -6.6354    0.8354    0.0000 C   0  0  0  0  0  0  0  0  0  0  0  0
   -7.8615   -0.0286    0.0000 C   0  0  0  0  0  0  0  0  0  0  0  0
   -7.7263   -1.5225    0.0000 C   0  0  0  0  0  0  0  0  0  0  0  0
   -6.3649   -2.1523    0.0000 C   0  0  0  0  0  0  0  0  0  0  0  0
   -5.1388   -1.2883    0.0000 C   0  0  0  0  0  0  0  0  0  0  0  0
    0.9919    3.0320    0.0000 C   0  0  0  0  0  0  0  0  0  0  0  0
    2.2180    3.8960    0.0000 O   0  0  0  0  0  0  0  0  0  0  0  0
   -0.3695    3.6618    0.0000 O   0  0  0  0  0  0  0  0  0  0  0  0
    2.4454   -2.0750    0.0000 C   0  0  0  0  0  0  0  0  0  0  0  0
    1.2345   -2.9604    0.0000 O   0  0  0  0  0  0  0  0  0  0  0  0
    3.8067   -2.7049    0.0000 N   0  0  0  0  0  0  0  0  0  0  0  0
    4.8264   -1.6048    0.0000 C   0  0  0  0  0  0  0  0  0  0  0  0
    6.3263   -1.6264    0.0000 C   0  0  0  0  0  0  0  0  0  0  0  0
    7.0950   -0.3384    0.0000 C   0  0  0  0  0  0  0  0  0  0  0  0
    6.3638    0.9714    0.0000 C   0  0  0  0  0  0  0  0  0  0  0  0
    4.8640    0.9930    0.0000 C   0  0  0  0  0  0  0  0  0  0  0  0
    4.0953   -0.2950    0.0000 C   0  0  0  0  0  0  0  0  0  0  0  0
  1  2  2  0
  2  3  1  0
  3  4  1  0
  3  5  1  0
  3  6  1  0
  6  7  1  6
  8  7  1  6
  8  9  1  0
  9 10  1  0
 10 11  2  0
 10 12  1  0
 12 13  1  1
 12 14  1  0
 14 15  1  0
 15 16  2  0
 16 17  1  0
 17 18  2  0
 18 19  1  0
 19 20  2  0
  8 21  1  0
 21 22  2  0
 21 23  1  0
  6 24  1  0
 24 25  2  0
 24 26  1  0
 26 27  1  0
 27 28  2  0
 28 29  1  0
 29 30  2  0
 30 31  1  0
 31 32  2  0
 32  6  1  0
 20 15  1  0
 32 27  1  0
M  END
>  <identifier>  (352) 
CNP0276677.1

>  <canonical_smiles>  (352) 
C=CC(C)(C)[C@]1(C[C@H](NC(=O)[C@@H](O)CC2=CC=CC=C2)C(=O)O)C(=O)NC2=CC=CC=C21

>  <standard_inchi>  (352) 
InChI=1S/C25H28N2O5/c1-4-24(2,3)25(17-12-8-9-13-18(17)27-23(25)32)15-19(22(30)31)26-21(29)20(28)14-16-10-6-5-7-11-16/h4-13,19-20,28H,1,14-15H2,2-3H3,(H,26,29)(H,27,32)(H,30,31)/t19-,20-,25-/m0/s1

>  <standard_inchi_key>  (352) 
QZMIWNADYPPZTF-RLSLOFABSA-N

>  <name>  (352) 
9-deoxy-seco-PF1233 B carboxylic acid

>  <iupac_name>  (352) 
(2~{S})-3-[(3~{S})-3-(1,1-dimethylallyl)-2-oxo-indolin-3-yl]-2-[[(2~{S})-2-hydroxy-3-phenyl-propanoyl]amino]propanoic acid

>  <annotation_level>  (352) 
5

>  <total_atom_count>  (352) 
60

>  <heavy_atom_count>  (352) 
32

>  <molecular_weight>  (352) 
436.51

>  <exact_molecular_weight>  (352) 
436.19982

>  <molecular_formula>  (352) 
C25H28N2O5

>  <alogp>  (352) 
2.65

>  <topological_polar_surface_area>  (352) 
115.73

>  <rotatable_bond_count>  (352) 
9

>  <hydrogen_bond_acceptors>  (352) 
4

>  <hydrogen_bond_donors>  (352) 
4

>  <hydrogen_bond_acceptors_lipinski>  (352) 
4

>  <hydrogen_bond_donors_lipinski>  (352) 
4

>  <lipinski_rule_of_five_violations>  (352) 
0

>  <aromatic_rings_count>  (352) 
2

>  <qed_drug_likeliness>  (352) 
0.45

>  <formal_charge>  (352) 
0

>  <fractioncsp3>  (352) 
0.32

>  <number_of_minimal_rings>  (352) 
3

>  <van_der_walls_volume>  (352) 
400.63

>  <contains_sugar>  (352) 
False

>  <contains_ring_sugars>  (352) 
False

>  <contains_linear_sugars>  (352) 
False

>  <murcko_framework>  (352) 
c1ccc(cc1)CCCNCCC2c3ccccc3NC2

>  <np_likeness>  (352) 
1.23

>  <chemical_class>  (352) 
Carboxylic acids and derivatives

>  <chemical_sub_class>  (352) 
Amino acids, peptides, and analogues

>  <chemical_super_class>  (352) 
Organic acids and derivatives

>  <direct_parent_classification>  (352) 
N-acyl-alpha amino acids

>  <np_classifier_pathway>  (352) 
Amino acids and Peptides

>  <np_classifier_superclass>  (352) 
Small peptides

>  <np_classifier_class>  (352) 
Dipeptides

>  <np_classifier_is_glycoside>  (352) 
False

>  <organisms>  (352) 
Aspergillus sp.|Aspergillus sp. MEXU 27854|Aspergillus sp. MEXU 27857

>  <collections>  (352) 
BIOFACQUIM|CMNPD|Latin America dataset|NPAtlas

>  <dois>  (352) 
10.1021/acs.jnatprod.7b00331|10.1039/c8np00092a

>  <synonyms>  (352) 
CHEBI:208068|(2S)-2-(2S)-2-hydroxy-3-phenylpropanoylamino-3-(3S)-3-(2-methylbut-3-en-2-yl)-2-oxo-1H-indol-3-ylpropanoic acid|9-deoxy-seco-PF1233 B carboxylic acid

>  <cas>  (352) 
nan

$$$$

     RDKit          2D

 16 18  0  0  0  0  0  0  0  0999 V2000
   -3.3586   -1.0349    0.0000 C   0  0  0  0  0  0  0  0  0  0  0  0
   -1.8586   -1.0415    0.0000 C   0  0  0  0  0  0  0  0  0  0  0  0
   -0.9823   -2.2588    0.0000 C   0  0  0  0  0  0  0  0  0  0  0  0
    0.4463   -1.8016    0.0000 C   0  0  0  0  0  0  0  0  0  0  0  0
    1.6559   -2.6886    0.0000 O   0  0  0  0  0  0  0  0  0  0  0  0
    0.4529   -0.3016    0.0000 C   0  0  0  0  0  0  0  0  0  0  0  0
    1.9454   -0.1519    0.0000 C   0  0  0  0  0  0  0  0  0  0  0  0
    2.8213   -1.3696    0.0000 C   0  0  0  0  0  0  0  0  0  0  0  0
    2.5620    1.2155    0.0000 C   0  0  0  0  0  0  0  0  0  0  0  0
    1.6861    2.4332    0.0000 C   0  0  0  0  0  0  0  0  0  0  0  0
    0.1936    2.2835    0.0000 C   0  0  0  0  0  0  0  0  0  0  0  0
   -1.1796    1.6799    0.0000 C   0  0  0  0  0  0  0  0  0  0  0  0
   -1.0299    0.1874    0.0000 C   0  0  0  0  0  0  0  0  0  0  0  0
   -0.4230    0.9161    0.0000 C   0  0  0  0  0  0  0  0  0  0  0  0
   -1.1011    0.4969    0.0000 C   0  0  0  0  0  0  0  0  0  0  0  0
   -1.8302    1.4357    0.0000 C   0  0  0  0  0  0  0  0  0  0  0  0
  1  2  1  0
  2  3  2  0
  3  4  1  0
  4  5  2  0
  6  4  1  6
  6  7  1  0
  7  8  1  1
  7  9  1  0
  9 10  1  0
 11 10  1  1
 11 12  1  0
 13 12  1  6
 11 14  1  0
 14 15  1  0
 14 16  1  0
 13  2  1  0
 13  6  1  0
 14  6  1  0
M  END
>  <identifier>  (353) 
CNP0309740.1

>  <canonical_smiles>  (353) 
CC1=CC(=O)[C@]23[C@H](C)CC[C@H](C[C@@H]12)C3(C)C

>  <standard_inchi>  (353) 
InChI=1S/C15H22O/c1-9-7-13(16)15-10(2)5-6-11(8-12(9)15)14(15,3)4/h7,10-12H,5-6,8H2,1-4H3/t10-,11-,12+,15+/m1/s1

>  <standard_inchi_key>  (353) 
BSDFKVHDDFHAFR-FJJYHAOUSA-N

>  <name>  (353) 
5alpha,7alpha,10betaH-3-Patchoulen-2-one

>  <iupac_name>  (353) 
(1~{R},5~{S},7~{R},10~{R})-4,10,11,11-tetramethyltricyclo[5.3.1.0^{1,5}]undec-3-en-2-one

>  <annotation_level>  (353) 
5

>  <total_atom_count>  (353) 
38

>  <heavy_atom_count>  (353) 
16

>  <molecular_weight>  (353) 
218.34

>  <exact_molecular_weight>  (353) 
218.16707

>  <molecular_formula>  (353) 
C15H22O

>  <alogp>  (353) 
3.59

>  <topological_polar_surface_area>  (353) 
17.07

>  <rotatable_bond_count>  (353) 
0

>  <hydrogen_bond_acceptors>  (353) 
1

>  <hydrogen_bond_donors>  (353) 
0

>  <hydrogen_bond_acceptors_lipinski>  (353) 
1

>  <hydrogen_bond_donors_lipinski>  (353) 
0

>  <lipinski_rule_of_five_violations>  (353) 
0

>  <aromatic_rings_count>  (353) 
0

>  <qed_drug_likeliness>  (353) 
0.61

>  <formal_charge>  (353) 
0

>  <fractioncsp3>  (353) 
0.80

>  <number_of_minimal_rings>  (353) 
3

>  <van_der_walls_volume>  (353) 
222.15

>  <contains_sugar>  (353) 
False

>  <contains_ring_sugars>  (353) 
False

>  <contains_linear_sugars>  (353) 
False

>  <murcko_framework>  (353) 
C1=CC2CC3CCCC2(C1)C3

>  <np_likeness>  (353) 
2.69

>  <chemical_class>  (353) 
Organooxygen compounds

>  <chemical_sub_class>  (353) 
Carbonyl compounds

>  <chemical_super_class>  (353) 
Organic oxygen compounds

>  <direct_parent_classification>  (353) 
Ketones

>  <np_classifier_pathway>  (353) 
Terpenoids

>  <np_classifier_superclass>  (353) 
Sesquiterpenoids

>  <np_classifier_class>  (353) 
Patchoulane sesquiterpenoids

>  <np_classifier_is_glycoside>  (353) 
False

>  <organisms>  (353) 
Croton arboreous

>  <collections>  (353) 
BIOFACQUIM|Latin America dataset|Super Natural II

>  <dois>  (353) 
10.1021/np030485f

>  <synonyms>  (353) 
(1R|5S|7R|10R)-4|10|11|11-Tetramethyltricyclo5.3.1.01|5undec-3-en-2-one|5\u0152\u00b1 7\u0152\u00b1 10\u0152\u2264H-3-patchoulen-2-one

>  <cas>  (353) 
nan

$$$$

     RDKit          2D

 16 18  0  0  0  0  0  0  0  0999 V2000
   -3.3586   -1.0349    0.0000 C   0  0  0  0  0  0  0  0  0  0  0  0
   -1.8586   -1.0415    0.0000 C   0  0  0  0  0  0  0  0  0  0  0  0
   -0.9823   -2.2588    0.0000 C   0  0  0  0  0  0  0  0  0  0  0  0
    0.4463   -1.8016    0.0000 C   0  0  0  0  0  0  0  0  0  0  0  0
    1.6559   -2.6886    0.0000 O   0  0  0  0  0  0  0  0  0  0  0  0
    0.4529   -0.3016    0.0000 C   0  0  0  0  0  0  0  0  0  0  0  0
    1.9454   -0.1519    0.0000 C   0  0  0  0  0  0  0  0  0  0  0  0
    2.8213   -1.3696    0.0000 C   0  0  0  0  0  0  0  0  0  0  0  0
    2.5620    1.2155    0.0000 C   0  0  0  0  0  0  0  0  0  0  0  0
    1.6861    2.4332    0.0000 C   0  0  0  0  0  0  0  0  0  0  0  0
    0.1936    2.2835    0.0000 C   0  0  0  0  0  0  0  0  0  0  0  0
   -1.1796    1.6799    0.0000 C   0  0  0  0  0  0  0  0  0  0  0  0
   -1.0299    0.1874    0.0000 C   0  0  0  0  0  0  0  0  0  0  0  0
   -0.4230    0.9161    0.0000 C   0  0  0  0  0  0  0  0  0  0  0  0
   -1.1011    0.4969    0.0000 C   0  0  0  0  0  0  0  0  0  0  0  0
   -1.8302    1.4357    0.0000 C   0  0  0  0  0  0  0  0  0  0  0  0
  1  2  2  0
  2  3  1  0
  3  4  1  0
  4  5  1  1
  4  6  1  0
  6  7  1  0
  7  8  1  1
  7  9  1  0
  9 10  1  0
 11 10  1  1
 11 12  1  0
 13 12  1  6
 11 14  1  0
 14 15  1  0
 14 16  1  0
 13  2  1  0
 13  6  1  0
  6 14  1  6
M  END
>  <identifier>  (354) 
CNP0110001.1

>  <canonical_smiles>  (354) 
C=C1C[C@H](O)[C@]23[C@H](C)CC[C@H](C[C@@H]12)C3(C)C

>  <standard_inchi>  (354) 
InChI=1S/C15H24O/c1-9-7-13(16)15-10(2)5-6-11(8-12(9)15)14(15,3)4/h10-13,16H,1,5-8H2,2-4H3/t10-,11-,12+,13+,15+/m1/s1

>  <standard_inchi_key>  (354) 
NVMNSYJDDAJQAQ-BIGJJFBESA-N

>  <name>  (354) 
nan

>  <iupac_name>  (354) 
(1~{R},2~{S},5~{S},7~{R},10~{R})-10,11,11-trimethyl-4-methylene-tricyclo[5.3.1.0^{1,5}]undecan-2-ol

>  <annotation_level>  (354) 
5

>  <total_atom_count>  (354) 
40

>  <heavy_atom_count>  (354) 
16

>  <molecular_weight>  (354) 
220.36

>  <exact_molecular_weight>  (354) 
220.18272

>  <molecular_formula>  (354) 
C15H24O

>  <alogp>  (354) 
3.39

>  <topological_polar_surface_area>  (354) 
20.23

>  <rotatable_bond_count>  (354) 
0

>  <hydrogen_bond_acceptors>  (354) 
1

>  <hydrogen_bond_donors>  (354) 
1

>  <hydrogen_bond_acceptors_lipinski>  (354) 
1

>  <hydrogen_bond_donors_lipinski>  (354) 
1

>  <lipinski_rule_of_five_violations>  (354) 
0

>  <aromatic_rings_count>  (354) 
0

>  <qed_drug_likeliness>  (354) 
0.62

>  <formal_charge>  (354) 
0

>  <fractioncsp3>  (354) 
0.87

>  <number_of_minimal_rings>  (354) 
3

>  <van_der_walls_volume>  (354) 
226.36

>  <contains_sugar>  (354) 
False

>  <contains_ring_sugars>  (354) 
False

>  <contains_linear_sugars>  (354) 
False

>  <murcko_framework>  (354) 
C1CC2CC3CCCC3(C1)C2

>  <np_likeness>  (354) 
2.44

>  <chemical_class>  (354) 
Organooxygen compounds

>  <chemical_sub_class>  (354) 
Alcohols and polyols

>  <chemical_super_class>  (354) 
Organic oxygen compounds

>  <direct_parent_classification>  (354) 
Cyclic alcohols and derivatives

>  <np_classifier_pathway>  (354) 
Terpenoids

>  <np_classifier_superclass>  (354) 
Sesquiterpenoids

>  <np_classifier_class>  (354) 
Patchoulane sesquiterpenoids

>  <np_classifier_is_glycoside>  (354) 
False

>  <organisms>  (354) 
Croton arboreous

>  <collections>  (354) 
BIOFACQUIM|Latin America dataset|Super Natural II

>  <dois>  (354) 
10.1021/np030485f

>  <synonyms>  (354) 
5\u0152\u00b1 7\u0152\u00b110\u0152\u2264H-4(14)-patchoulen-2\u0152\u00b1-ol

>  <cas>  (354) 
nan

$$$$

     RDKit          2D

 19 21  0  0  0  0  0  0  0  0999 V2000
   -3.3462    2.6856    0.0000 C   0  0  0  0  0  0  0  0  0  0  0  0
   -3.3253    1.1858    0.0000 C   0  0  0  0  0  0  0  0  0  0  0  0
   -4.6137    0.4177    0.0000 C   0  0  0  0  0  0  0  0  0  0  0  0
   -2.0159    0.4540    0.0000 C   0  0  0  0  0  0  0  0  0  0  0  0
   -2.1071   -1.0433    0.0000 C   0  0  0  0  0  0  0  0  0  0  0  0
   -0.9934   -2.0481    0.0000 C   0  0  0  0  0  0  0  0  0  0  0  0
   -1.4155   -3.4875    0.0000 O   0  0  0  0  0  0  0  0  0  0  0  0
    0.4866   -1.8039    0.0000 C   0  0  0  0  0  0  0  0  0  0  0  0
    1.9259   -2.2260    0.0000 C   0  0  0  0  0  0  0  0  0  0  0  0
    0.3953   -3.3011    0.0000 O   0  0  0  0  0  0  0  0  0  0  0  0
    1.2184   -0.4945    0.0000 C   0  0  0  0  0  0  0  0  0  0  0  0
    2.7143   -0.3839    0.0000 C   0  0  0  0  0  0  0  0  0  0  0  0
    1.4391    0.4059    0.0000 C   0  0  0  0  0  0  0  0  0  0  0  0
    1.7962    1.8628    0.0000 C   0  0  0  0  0  0  0  0  0  0  0  0
    0.8274    3.0080    0.0000 C   0  0  0  0  0  0  0  0  0  0  0  0
    3.2921    1.9734    0.0000 O   0  0  0  0  0  0  0  0  0  0  0  0
    3.8595    0.5848    0.0000 O   0  0  0  0  0  0  0  0  0  0  0  0
    0.6509    0.8940    0.0000 C   0  0  0  0  0  0  0  0  0  0  0  0
   -0.7885    1.3161    0.0000 C   0  0  0  0  0  0  0  0  0  0  0  0
  1  2  1  0
  2  3  1  0
  4  2  1  1
  4  5  1  0
  5  6  1  0
  6  7  1  6
  6  8  1  0
  8  9  1  6
  8 10  1  0
  8 11  1  0
 11 12  1  1
 12 13  1  0
 13 14  1  0
 14 15  1  6
 14 16  1  0
 16 17  1  0
 14 18  1  0
 18 19  1  6
 19  4  1  0
 18 11  1  0
 12 17  1  1
M  END
>  <identifier>  (355) 
CNP0106152.1

>  <canonical_smiles>  (355) 
CC(C)[C@@H]1C[C@@H](O)[C@](C)(O)[C@@H]2[C@H]3C[C@](C)(OO3)[C@H]2C1

>  <standard_inchi>  (355) 
InChI=1S/C15H26O4/c1-8(2)9-5-10-13(15(4,17)12(16)6-9)11-7-14(10,3)19-18-11/h8-13,16-17H,5-7H2,1-4H3/t9-,10-,11+,12+,13-,14-,15-/m0/s1

>  <standard_inchi_key>  (355) 
USEWIKYKYDMBSN-XTELSCJUSA-N

>  <name>  (355) 
USEWIKYKYDMBSN-XTELSCJUSA-

>  <iupac_name>  (355) 
(1~{R},2~{S},3~{R},4~{R},6~{S},8~{S},9~{S})-6-isopropyl-3,9-dimethyl-10,11-dioxatricyclo[7.2.1.0^{2,8}]dodecane-3,4-diol

>  <annotation_level>  (355) 
5

>  <total_atom_count>  (355) 
45

>  <heavy_atom_count>  (355) 
19

>  <molecular_weight>  (355) 
270.37

>  <exact_molecular_weight>  (355) 
270.18311

>  <molecular_formula>  (355) 
C15H26O4

>  <alogp>  (355) 
1.89

>  <topological_polar_surface_area>  (355) 
58.92

>  <rotatable_bond_count>  (355) 
1

>  <hydrogen_bond_acceptors>  (355) 
4

>  <hydrogen_bond_donors>  (355) 
2

>  <hydrogen_bond_acceptors_lipinski>  (355) 
4

>  <hydrogen_bond_donors_lipinski>  (355) 
2

>  <lipinski_rule_of_five_violations>  (355) 
0

>  <aromatic_rings_count>  (355) 
0

>  <qed_drug_likeliness>  (355) 
0.71

>  <formal_charge>  (355) 
0

>  <fractioncsp3>  (355) 
1.00

>  <number_of_minimal_rings>  (355) 
3

>  <van_der_walls_volume>  (355) 
258.26

>  <contains_sugar>  (355) 
False

>  <contains_ring_sugars>  (355) 
False

>  <contains_linear_sugars>  (355) 
False

>  <murcko_framework>  (355) 
O1OC2CC1C3CCCCCC23

>  <np_likeness>  (355) 
2.97

>  <chemical_class>  (355) 
Prenol lipids

>  <chemical_sub_class>  (355) 
Sesquiterpenoids

>  <chemical_super_class>  (355) 
Lipids and lipid-like molecules

>  <direct_parent_classification>  (355) 
Sesquiterpenoids

>  <np_classifier_pathway>  (355) 
Terpenoids

>  <np_classifier_superclass>  (355) 
Sesquiterpenoids

>  <np_classifier_class>  (355) 
Guaiane sesquiterpenoids

>  <np_classifier_is_glycoside>  (355) 
False

>  <organisms>  (355) 
Croton arboreous

>  <collections>  (355) 
BIOFACQUIM|Latin America dataset|Super Natural II

>  <dois>  (355) 
10.1021/np030485f

>  <synonyms>  (355) 
(1R|2S|3R|4R|6S|8S|9S)-3|9-Dimethyl-6-propan-2-yl-10|11-dioxatricyclo7.2.1.02|8dodecane-3|4-diol|InChI=1\/C15H26O4\/c1-8(2)9-5-10-13(15(4|17)12(16)6-9)11-7-14(10|3)19-18-11\/h8-13|16-17H|5-7H2|1-4H3\/t9-|10-|11+|12+|13-|14-|15-\/m0\/s1|9\u0152\u00b1 10\u0152\u2264-dihydroxy-2\u0152\u2264 4\u0152\u2264-peroxy-1\u0152\u00b1 5\u0152\u2264 7\u0152\u00b1H-guaiane

>  <cas>  (355) 
nan

$$$$

     RDKit          2D

 17 19  0  0  0  0  0  0  0  0999 V2000
   -4.1821   -1.8222    0.0000 C   0  0  0  0  0  0  0  0  0  0  0  0
   -3.6376   -0.4245    0.0000 C   0  0  0  0  0  0  0  0  0  0  0  0
   -5.1086   -0.1310    0.0000 C   0  0  0  0  0  0  0  0  0  0  0  0
   -3.6040    1.0751    0.0000 C   0  0  0  0  0  0  0  0  0  0  0  0
   -2.2885    1.7958    0.0000 C   0  0  0  0  0  0  0  0  0  0  0  0
   -1.0066    1.0169    0.0000 C   0  0  0  0  0  0  0  0  0  0  0  0
    0.3089    1.7376    0.0000 C   0  0  0  0  0  0  0  0  0  0  0  0
    1.5908    0.9586    0.0000 C   0  0  0  0  0  0  0  0  0  0  0  0
    1.5572   -0.5410    0.0000 C   0  0  0  0  0  0  0  0  0  0  0  0
    0.2417   -1.2617    0.0000 C   0  0  0  0  0  0  0  0  0  0  0  0
   -1.0402   -0.4827    0.0000 C   0  0  0  0  0  0  0  0  0  0  0  0
   -2.3557   -1.2034    0.0000 O   0  0  0  0  0  0  0  0  0  0  0  0
    2.8391   -1.3199    0.0000 O   0  0  0  0  0  0  0  0  0  0  0  0
    4.1546   -0.5992    0.0000 C   0  0  0  0  0  0  0  0  0  0  0  0
    5.4365   -1.3782    0.0000 O   0  0  0  0  0  0  0  0  0  0  0  0
    4.1883    0.9004    0.0000 C   0  0  0  0  0  0  0  0  0  0  0  0
    2.9064    1.6793    0.0000 C   0  0  0  0  0  0  0  0  0  0  0  0
  1  2  1  0
  2  3  1  0
  2  4  1  0
  4  5  2  0
  5  6  1  0
  6  7  2  0
  7  8  1  0
  8  9  2  0
  9 10  1  0
 10 11  2  0
 11 12  1  0
  9 13  1  0
 13 14  1  0
 14 15  2  0
 14 16  1  0
 16 17  2  0
 12  2  1  0
 11  6  1  0
 17  8  1  0
M  END
>  <identifier>  (356) 
CNP0195687.0

>  <canonical_smiles>  (356) 
CC1(C)C=CC2=CC3=C(C=C2O1)OC(=O)C=C3

>  <standard_inchi>  (356) 
InChI=1S/C14H12O3/c1-14(2)6-5-10-7-9-3-4-13(15)16-11(9)8-12(10)17-14/h3-8H,1-2H3

>  <standard_inchi_key>  (356) 
QOTBQNVNUBKJMS-UHFFFAOYSA-N

>  <name>  (356) 
Xanthyletin

>  <iupac_name>  (356) 
2,2-dimethylpyrano[3,2-g]chromen-8-one

>  <annotation_level>  (356) 
5

>  <total_atom_count>  (356) 
29

>  <heavy_atom_count>  (356) 
17

>  <molecular_weight>  (356) 
228.25

>  <exact_molecular_weight>  (356) 
228.07864

>  <molecular_formula>  (356) 
C14H12O3

>  <alogp>  (356) 
2.98

>  <topological_polar_surface_area>  (356) 
39.44

>  <rotatable_bond_count>  (356) 
0

>  <hydrogen_bond_acceptors>  (356) 
3

>  <hydrogen_bond_donors>  (356) 
0

>  <hydrogen_bond_acceptors_lipinski>  (356) 
3

>  <hydrogen_bond_donors_lipinski>  (356) 
0

>  <lipinski_rule_of_five_violations>  (356) 
0

>  <aromatic_rings_count>  (356) 
2

>  <qed_drug_likeliness>  (356) 
0.65

>  <formal_charge>  (356) 
0

>  <fractioncsp3>  (356) 
0.21

>  <number_of_minimal_rings>  (356) 
3

>  <van_der_walls_volume>  (356) 
201.89

>  <contains_sugar>  (356) 
False

>  <contains_ring_sugars>  (356) 
False

>  <contains_linear_sugars>  (356) 
False

>  <murcko_framework>  (356) 
O1c2cc3OCC=Cc3cc2C=CC1

>  <np_likeness>  (356) 
2.14

>  <chemical_class>  (356) 
Coumarins and derivatives

>  <chemical_sub_class>  (356) 
Pyranocoumarins

>  <chemical_super_class>  (356) 
Phenylpropanoids and polyketides

>  <direct_parent_classification>  (356) 
Linear pyranocoumarins

>  <np_classifier_pathway>  (356) 
Shikimates and Phenylpropanoids

>  <np_classifier_superclass>  (356) 
Coumarins

>  <np_classifier_class>  (356) 
Pyranocoumarins

>  <np_classifier_is_glycoside>  (356) 
False

>  <organisms>  (356) 
Acanthophyllum sordidum|Aceriphyllum rossii|Aconitum habaense|Aconitum tanguticum|Agnorhiza bolanderi|Alligator mississippiensis|Anagallis arvensis|Anaxagorea clavata|Angelica gigas|Aphelandra chamissoniana|Araujia sericifera|Aria pallescens|Arnica nevadensis|Artemisia monogyna|Bassia butyracea|Bauhinia racemosa|Beyeria brevifolia|Boenninghausenia albiflora|Bougainvillea glabra|Brosimum brevipedunculatum|Brosimum guianense|Brosimum lanciferum|Brosimum lecointei|Brosimum paraense|Brosimum parinarioides|Brosimum potabile|Brosimum rubescens|Brosimum sp.|Brosimum utile|Bryopsis pennata|Bursaria spinosa|Chloranthus tianmushanensis|Chloroxylon swietenia|Chromolaena odorata|Chromolaena pulchella|Cirsium canum|Citrus aurantifolia|Citrus aurantiifolia|Citrus hassaku|Citrus jambhiri|Citrus limon|Citrus limonia|Citrus medica var. etrog|Citrus reticulata|Citrus rugulosa|Citrus sinensis|Citrus tachibana|Citrus tamurana|Citrus tankan|Cladonia evansii|Clausena excavata|Clonostachys rosea|Coccus fagi|Cudrania tricuspidata|Curvularia spicifera|Cyclamen balearicum|Cystoseira caespitosa|Dendrosenecio kilimanjari|Dipterocarpus alatus|Drosera peltata|Earias insulana|Echinops amplexicaulis|Epaltes gariepina|Euphorbia hirta|Ficus beecheyana|Ficus formosana|Flammulina velutipes|Flindersia pimenteliana|Fusarium gibbosum|Gardenia fosbergii|Grindelia humilis|Gustavia hexapetala|Halosaccion ramentaceum|Hypholoma capnoides|Ilex affinis|Isodon kameba|Kaempferia pulchra|Lactarius deliciosus var. deterrimus|Lactarius scrobiculatus|Laurencia glandulifera|Lecidea carpathica|Luvunga scandens|Lyophyllum connatum|Maianthemum stellatum|Melicope semecarpifolia|Odixia angusta|Opuntia vulgaris|Palythoa tuberculosa|Panax spinosus|Pheidole pallidula|Phellodendron amurense|Pilocarpus riedelianus|Piper hancei|Plumbago zeylanica|Podocarpus henckelii|Polyalthia stenopetala|Prosopis glandulosa|Prunus laurocerasus|Pseudopterogorgia kallos|Pseudotsuga japonica|Pteris prolifera|Pterocarpus grandiflorus|Pyropia tenera|Pyrosoma giganteum|Quercus aegilops|Rauvolfia verticillata|Rhizobium phaseoli|Roemeria refracta|Rosa transmorrisonensis|Ruta chalepensis L.|Ruta graveolens|Rutaceae sp.|Salvia lasiantha|Salvia officinalis|Securidaca inappendiculata|Senecio squalidus|Seriphidium cinum|Sesbania punicea|Simira eliezeriana|Stauranthus perforatus|Stenostomum lucidum|Streptomyces althioticus|Strophanthus hispidus|Strychnos henningsii|Tanacetum argyrophyllum|Taxodium mucronatum|Thermus thermophilus|Uncaria perrottetii|Vernonia scorpioides|Vitex madiensis|Zanthoxy ailanthoides|Zanthoxylum ailanthoides|Zanthoxylum americanum

>  <collections>  (356) 
AnalytiCon Discovery NPs|Australian natural products|BIOFACQUIM|CMAUP (cCollective molecular activities of useful plants)|ChEBI NPs|ETM (Ethiopian Traditional Medicine) DB|FooDB|GNPS (Global Natural Products Social Molecular Networking)|KNApSaCK|Latin America dataset|NPASS|NPCARE|NPEdia|NuBBEDB|Phyto4Health|PubChem NPs|Specs Natural Products|Super Natural II|TCMDB-Taiwan (Traditional Chinese Medicine database)|TCMID (Traditional Chinese Medicine Integrated Database)|TIPdb (database of Taiwan indigenous plants)|UNPD (Universal Natural Products Database)|VietHerb|ZINC NP

>  <dois>  (356) 
10.1016/S0031-9422(00)86395-5|10.1016/S0031-9422(00)89841-6|10.1016/j.chroma.2009.02.066|10.1016/j.phytochem.2004.12.028|10.1021/acs.jnatprod.6b00204|10.1021/jf801103p|10.1021/np030509i|10.1021/np50106a013|10.1071/ch9751393|10.1351/pac200173030617|10.1590/S0103-50532005000400031

>  <synonyms>  (356) 
553-19-5|Xanthyletine|2|2-dimethylpyrano3|2-gchromen-8-one|Spectrum_000673|SpecPlus_000132|CHEMBL303846|CHEBI:10073|3N789LD38N|8|8-Dimethyl-2H|8H-pyrano3|2-gchromen-2-one|8|8-Dimethyl-2H|8H-benzo(1|2-b:5|4-b')dipyran-2-one|UNII-3N789LD38N|XANTHYLETIN MI|Spectrum2_000365|Spectrum3_000124|Spectrum4_001401|Spectrum5_000162|BSPBio_001768|KBioGR_001782|KBioSS_001153|SPECTRUM100609|cid_65188|MLS000863611|DivK1c_006228|SPBio_000489|MEGxp0_000991|SCHEMBL2120500|ACon1_000507|KBio1_001172|KBio2_001153|KBio2_003721|KBio2_006289|KBio3_000928|DTXSID60203818|QOTBQNVNUBKJMS-UHFFFAOYSA-N|HMS2269H15|AMY25083|HY-N4116|2|2-DIMETHYLCHROMENOCOUMARIN|BDBM50292575|CCG-38639|AKOS000278141|SDCCGMLS-0066430.P001|NCGC00095444-01|SMR000440697|XX163807|CS-0032126|C09317|E88696|A830590|SR-01000780630|BRD-K28108221-001-02-3|Q27108571|2H|8H-Benzo1|2-b:5|4-b'dipyran-2-one| 8|8-dimethyl-|7-HYDROXY-2|2-DIMETHYL-2H-1-BENZOPYRAN-6-ACRYLIC ACID .DELTA.-LACTONE|xanthyletin

>  <cas>  (356) 
553-19-5

$$$$

     RDKit          2D

 50 57  0  0  0  0  0  0  0  0999 V2000
   -8.8449   -3.5419    0.0000 C   0  0  0  0  0  0  0  0  0  0  0  0
   -7.3667   -3.2871    0.0000 C   0  0  0  0  0  0  0  0  0  0  0  0
   -6.8483   -1.8796    0.0000 C   0  0  0  0  0  0  0  0  0  0  0  0
   -5.3701   -1.6247    0.0000 C   0  0  0  0  0  0  0  0  0  0  0  0
   -4.4103   -2.7775    0.0000 C   0  0  0  0  0  0  0  0  0  0  0  0
   -4.9287   -4.1851    0.0000 O   0  0  0  0  0  0  0  0  0  0  0  0
   -6.4069   -4.4399    0.0000 C   0  0  0  0  0  0  0  0  0  0  0  0
   -3.7476   -1.4318    0.0000 O   0  0  0  0  0  0  0  0  0  0  0  0
   -2.2630   -1.6463    0.0000 C   0  0  0  0  0  0  0  0  0  0  0  0
   -0.9359   -0.9471    0.0000 C   0  0  0  0  0  0  0  0  0  0  0  0
    0.1391   -1.9932    0.0000 C   0  0  0  0  0  0  0  0  0  0  0  0
    1.6359   -1.8943    0.0000 C   0  0  0  0  0  0  0  0  0  0  0  0
    2.2986   -0.5487    0.0000 C   0  0  0  0  0  0  0  0  0  0  0  0
    3.7953   -0.4497    0.0000 C   0  0  0  0  0  0  0  0  0  0  0  0
    4.4580    0.8959    0.0000 O   0  0  0  0  0  0  0  0  0  0  0  0
    3.6240    2.1427    0.0000 C   0  0  0  0  0  0  0  0  0  0  0  0
    4.2867    3.4883    0.0000 O   0  0  0  0  0  0  0  0  0  0  0  0
    3.4527    4.7351    0.0000 C   0  0  0  0  0  0  0  0  0  0  0  0
    4.1154    6.0808    0.0000 C   0  0  0  0  0  0  0  0  0  0  0  0
    1.9559    4.6362    0.0000 C   0  0  0  0  0  0  0  0  0  0  0  0
    1.1219    5.8829    0.0000 O   0  0  0  0  0  0  0  0  0  0  0  0
    1.2932    3.2905    0.0000 C   0  0  0  0  0  0  0  0  0  0  0  0
   -0.2035    3.1916    0.0000 O   0  0  0  0  0  0  0  0  0  0  0  0
   -1.0375    4.4384    0.0000 C   0  0  0  0  0  0  0  0  0  0  0  0
   -0.3748    5.7840    0.0000 O   0  0  0  0  0  0  0  0  0  0  0  0
   -1.2089    7.0308    0.0000 C   0  0  0  0  0  0  0  0  0  0  0  0
   -2.7056    6.9319    0.0000 C   0  0  0  0  0  0  0  0  0  0  0  0
   -3.5396    8.1786    0.0000 O   0  0  0  0  0  0  0  0  0  0  0  0
   -3.3683    5.5862    0.0000 C   0  0  0  0  0  0  0  0  0  0  0  0
   -4.8650    5.4873    0.0000 O   0  0  0  0  0  0  0  0  0  0  0  0
   -2.5343    4.3395    0.0000 C   0  0  0  0  0  0  0  0  0  0  0  0
   -3.1970    2.9938    0.0000 O   0  0  0  0  0  0  0  0  0  0  0  0
    2.1273    2.0438    0.0000 C   0  0  0  0  0  0  0  0  0  0  0  0
    1.4645    0.6981    0.0000 O   0  0  0  0  0  0  0  0  0  0  0  0
    4.6293   -1.6965    0.0000 C   0  0  0  0  0  0  0  0  0  0  0  0
    6.1261   -1.5976    0.0000 C   0  0  0  0  0  0  0  0  0  0  0  0
    6.9601   -2.8443    0.0000 C   0  0  0  0  0  0  0  0  0  0  0  0
    8.4568   -2.7454    0.0000 O   0  0  0  0  0  0  0  0  0  0  0  0
    6.2974   -4.1900    0.0000 C   0  0  0  0  0  0  0  0  0  0  0  0
    4.8007   -4.2889    0.0000 C   0  0  0  0  0  0  0  0  0  0  0  0
    3.9666   -3.0422    0.0000 C   0  0  0  0  0  0  0  0  0  0  0  0
    3.3039   -4.3878    0.0000 C   0  0  0  0  0  0  0  0  0  0  0  0
    2.4699   -3.1411    0.0000 C   0  0  0  0  0  0  0  0  0  0  0  0
    1.8072   -4.4867    0.0000 C   0  0  0  0  0  0  0  0  0  0  0  0
    0.3104   -4.5857    0.0000 C   0  0  0  0  0  0  0  0  0  0  0  0
   -0.5236   -3.3389    0.0000 C   0  0  0  0  0  0  0  0  0  0  0  0
   -1.3233   -4.6079    0.0000 C   0  0  0  0  0  0  0  0  0  0  0  0
   -2.0082   -3.1245    0.0000 C   0  0  0  0  0  0  0  0  0  0  0  0
   -3.3353   -3.8236    0.0000 C   0  0  0  0  0  0  0  0  0  0  0  0
   -3.5497   -5.3082    0.0000 C   0  0  0  0  0  0  0  0  0  0  0  0
  2  1  1  1
  2  3  1  0
  3  4  1  0
  5  4  1  1
  5  6  1  0
  6  7  1  0
  5  8  1  0
  8  9  1  0
  9 10  1  1
 11 10  1  1
 11 12  1  0
 12 13  1  0
 13 14  1  0
 14 15  1  6
 16 15  1  1
 16 17  1  0
 17 18  1  0
 18 19  1  1
 18 20  1  0
 20 21  1  6
 20 22  1  0
 22 23  1  1
 24 23  1  1
 24 25  1  0
 25 26  1  0
 26 27  1  0
 27 28  1  6
 27 29  1  0
 29 30  1  1
 29 31  1  0
 31 32  1  6
 22 33  1  0
 33 34  1  6
 14 35  1  0
 35 36  1  1
 36 37  1  0
 37 38  1  1
 37 39  1  0
 39 40  1  0
 40 41  1  0
 41 42  1  1
 41 43  1  0
 43 44  1  1
 44 45  1  0
 45 46  1  0
 46 47  1  1
 46 48  1  0
 48 49  1  0
 49 50  1  6
  7  2  1  0
 48  9  1  1
 49  5  1  0
 46 11  1  0
 43 12  1  0
 33 16  1  0
 41 35  1  0
 31 24  1  0
M  END
>  <identifier>  (357) 
CNP0209029.1

>  <canonical_smiles>  (357) 
C[C@H]1CC[C@@]2(OC1)O[C@H]1C[C@H]3C4C[C@H](O[C@@H]5O[C@H](C)[C@@H](O)[C@H](O[C@@H]6OC[C@@H](O)[C@H](O)[C@H]6O)[C@H]5O)[C@H]5C[C@@H](O)CC[C@]5(C)[C@H]4CC[C@]3(C)[C@H]1[C@@H]2C

>  <standard_inchi>  (357) 
InChI=1S/C38H62O12/c1-17-6-11-38(46-15-17)18(2)28-27(50-38)14-23-21-13-26(24-12-20(39)7-9-36(24,4)22(21)8-10-37(23,28)5)48-35-32(44)33(29(41)19(3)47-35)49-34-31(43)30(42)25(40)16-45-34/h17-35,39-44H,6-16H2,1-5H3/t17-,18-,19+,20-,21?,22-,23-,24+,25+,26-,27-,28-,29+,30-,31+,32+,33-,34-,35-,36+,37-,38+/m0/s1

>  <standard_inchi_key>  (357) 
SZRYARBVBSFVQW-LGINFKBVSA-N

>  <name>  (357) 
nan

>  <iupac_name>  (357) 
(2~{S},3~{R},4~{S},5~{R})-2-[(2~{R},3~{R},4~{S},5~{R},6~{R})-3,5-dihydroxy-2-[(2~{S},4~{S},5'~{S},6~{R},7~{S},8~{R},9~{S},12~{S},13~{R},16~{S},18~{S},19~{S})-16-hydroxy-5',7,9,13-tetramethyl-spiro[5-oxapentacyclo[10.8.0.0^{2,9}.0^{4,8}.0^{13,18}]icosane-6,2'-tetrahydropyran]-19-yl]oxy-6-methyl-tetrahydropyran-4-yl]oxytetrahydropyran-3,4,5-triol

>  <annotation_level>  (357) 
5

>  <total_atom_count>  (357) 
112

>  <heavy_atom_count>  (357) 
50

>  <molecular_weight>  (357) 
710.9

>  <exact_molecular_weight>  (357) 
710.42413

>  <molecular_formula>  (357) 
C38H62O12

>  <alogp>  (357) 
2.08

>  <topological_polar_surface_area>  (357) 
176.76

>  <rotatable_bond_count>  (357) 
4

>  <hydrogen_bond_acceptors>  (357) 
12

>  <hydrogen_bond_donors>  (357) 
6

>  <hydrogen_bond_acceptors_lipinski>  (357) 
12

>  <hydrogen_bond_donors_lipinski>  (357) 
6

>  <lipinski_rule_of_five_violations>  (357) 
3

>  <aromatic_rings_count>  (357) 
0

>  <qed_drug_likeliness>  (357) 
0.23

>  <formal_charge>  (357) 
0

>  <fractioncsp3>  (357) 
1.00

>  <number_of_minimal_rings>  (357) 
8

>  <van_der_walls_volume>  (357) 
651.00

>  <contains_sugar>  (357) 
True

>  <contains_ring_sugars>  (357) 
True

>  <contains_linear_sugars>  (357) 
False

>  <murcko_framework>  (357) 
O1CCCCC1OC2CCOC(OC3CC4C(CCC5C4CC6OC7(OCCCC7)CC65)C8CCCCC38)C2

>  <np_likeness>  (357) 
2.76

>  <chemical_class>  (357) 
Steroids and steroid derivatives

>  <chemical_sub_class>  (357) 
Hydroxysteroids

>  <chemical_super_class>  (357) 
Lipids and lipid-like molecules

>  <direct_parent_classification>  (357) 
Hydroxysteroids

>  <np_classifier_pathway>  (357) 
Terpenoids

>  <np_classifier_superclass>  (357) 
Steroids

>  <np_classifier_class>  (357) 
Spirostane steroids

>  <np_classifier_is_glycoside>  (357) 
True

>  <organisms>  (357) 
Solanum chrysotrichum

>  <collections>  (357) 
BIOFACQUIM|Latin America dataset

>  <dois>  (357) 
10.1021/np0305019

>  <synonyms>  (357) 
6\u0152\u00b1-O-\u0152\u2264-d-xylopyranosyl-(1\u201a\u00dc\u00ed3)-\u0152\u2264-d-quinovopyranosyl-(25S)-5\u0152\u00b1-spirostan-3\u0152\u2264-ol

>  <cas>  (357) 
nan

$$$$

     RDKit          2D

 22 24  0  0  0  0  0  0  0  0999 V2000
   -6.7694    0.2311    0.0000 C   0  0  0  0  0  0  0  0  0  0  0  0
   -5.6074    1.1797    0.0000 C   0  0  0  0  0  0  0  0  0  0  0  0
   -4.2049    0.6477    0.0000 C   0  0  0  0  0  0  0  0  0  0  0  0
   -3.6729    2.0502    0.0000 C   0  0  0  0  0  0  0  0  0  0  0  0
   -4.7369   -0.7548    0.0000 C   0  0  0  0  0  0  0  0  0  0  0  0
   -2.8024    0.1157    0.0000 C   0  0  0  0  0  0  0  0  0  0  0  0
   -1.6404    1.0643    0.0000 C   0  0  0  0  0  0  0  0  0  0  0  0
   -0.2379    0.5323    0.0000 C   0  0  0  0  0  0  0  0  0  0  0  0
    0.9240    1.4809    0.0000 C   0  0  0  0  0  0  0  0  0  0  0  0
    2.3265    0.9489    0.0000 C   0  0  0  0  0  0  0  0  0  0  0  0
    2.5670   -0.5317    0.0000 C   0  0  0  0  0  0  0  0  0  0  0  0
    1.4051   -1.4803    0.0000 C   0  0  0  0  0  0  0  0  0  0  0  0
    0.0026   -0.9483    0.0000 C   0  0  0  0  0  0  0  0  0  0  0  0
   -1.1594   -1.8969    0.0000 O   0  0  0  0  0  0  0  0  0  0  0  0
   -2.5619   -1.3649    0.0000 C   0  0  0  0  0  0  0  0  0  0  0  0
   -3.7239   -2.3135    0.0000 O   0  0  0  0  0  0  0  0  0  0  0  0
    3.9695   -1.0637    0.0000 O   0  0  0  0  0  0  0  0  0  0  0  0
    5.1315   -0.1151    0.0000 C   0  0  0  0  0  0  0  0  0  0  0  0
    6.5478    0.3789    0.0000 C   0  0  0  0  0  0  0  0  0  0  0  0
    5.8639   -1.4241    0.0000 C   0  0  0  0  0  0  0  0  0  0  0  0
    4.8910    1.3655    0.0000 C   0  0  0  0  0  0  0  0  0  0  0  0
    3.4885    1.8975    0.0000 C   0  0  0  0  0  0  0  0  0  0  0  0
  1  2  2  0
  2  3  1  0
  3  4  1  0
  3  5  1  0
  3  6  1  0
  6  7  2  0
  7  8  1  0
  8  9  2  0
  9 10  1  0
 10 11  2  0
 11 12  1  0
 12 13  2  0
 13 14  1  0
 14 15  1  0
 15 16  2  0
 11 17  1  0
 17 18  1  0
 18 19  1  0
 18 20  1  0
 18 21  1  0
 21 22  2  0
 15  6  1  0
 13  8  1  0
 22 10  1  0
M  END
>  <identifier>  (358) 
CNP0246105.0

>  <canonical_smiles>  (358) 
C=CC(C)(C)C1=CC2=CC3=C(C=C2OC1=O)OC(C)(C)C=C3

>  <standard_inchi>  (358) 
InChI=1S/C19H20O3/c1-6-18(2,3)14-10-13-9-12-7-8-19(4,5)22-16(12)11-15(13)21-17(14)20/h6-11H,1H2,2-5H3

>  <standard_inchi_key>  (358) 
DWYNSYAYGXNRPD-UHFFFAOYSA-N

>  <name>  (358) 
Dimethyl allyl xanthyletin

>  <iupac_name>  (358) 
7-(1,1-dimethylallyl)-2,2-dimethyl-pyrano[3,2-g]chromen-8-one

>  <annotation_level>  (358) 
5

>  <total_atom_count>  (358) 
42

>  <heavy_atom_count>  (358) 
22

>  <molecular_weight>  (358) 
296.37

>  <exact_molecular_weight>  (358) 
296.14124

>  <molecular_formula>  (358) 
C19H20O3

>  <alogp>  (358) 
4.44

>  <topological_polar_surface_area>  (358) 
39.44

>  <rotatable_bond_count>  (358) 
2

>  <hydrogen_bond_acceptors>  (358) 
3

>  <hydrogen_bond_donors>  (358) 
0

>  <hydrogen_bond_acceptors_lipinski>  (358) 
3

>  <hydrogen_bond_donors_lipinski>  (358) 
0

>  <lipinski_rule_of_five_violations>  (358) 
0

>  <aromatic_rings_count>  (358) 
2

>  <qed_drug_likeliness>  (358) 
0.61

>  <formal_charge>  (358) 
0

>  <fractioncsp3>  (358) 
0.32

>  <number_of_minimal_rings>  (358) 
3

>  <van_der_walls_volume>  (358) 
276.69

>  <contains_sugar>  (358) 
False

>  <contains_ring_sugars>  (358) 
False

>  <contains_linear_sugars>  (358) 
False

>  <murcko_framework>  (358) 
O1c2cc3OCC=Cc3cc2C=CC1

>  <np_likeness>  (358) 
2.36

>  <chemical_class>  (358) 
Coumarins and derivatives

>  <chemical_sub_class>  (358) 
Pyranocoumarins

>  <chemical_super_class>  (358) 
Phenylpropanoids and polyketides

>  <direct_parent_classification>  (358) 
Linear pyranocoumarins

>  <np_classifier_pathway>  (358) 
Shikimates and Phenylpropanoids

>  <np_classifier_superclass>  (358) 
Coumarins

>  <np_classifier_class>  (358) 
Pyranocoumarins

>  <np_classifier_is_glycoside>  (358) 
False

>  <organisms>  (358) 
Boenninghausenia albiflora|Stauranthus perforatus

>  <collections>  (358) 
BIOFACQUIM|CMAUP (cCollective molecular activities of useful plants)|Latin America dataset|NPASS|Super Natural II|TCMDB-Taiwan (Traditional Chinese Medicine database)|TCMID (Traditional Chinese Medicine Integrated Database)|UNPD (Universal Natural Products Database)|ZINC NP

>  <dois>  (358) 
10.1016/j.phytochem.2004.12.028

>  <synonyms>  (358) 
CHEMBL3596581|7-(1|1-dimethylallyl)-2|2-dimethyl-pyrano3|2-gchromen-8-one|3-(1\u201a\u00c4\u2264 1\u201a\u00c4\u2264-dimethylallyl)-xanthyletin

>  <cas>  (358) 
nan

$$$$

     RDKit          2D

 19 21  0  0  0  0  0  0  0  0999 V2000
    5.0973    2.2578    0.0000 C   0  0  0  0  0  0  0  0  0  0  0  0
    4.7828    0.7911    0.0000 C   0  0  0  0  0  0  0  0  0  0  0  0
    3.3554    0.3302    0.0000 C   0  0  0  0  0  0  0  0  0  0  0  0
    3.8164   -1.0973    0.0000 C   0  0  0  0  0  0  0  0  0  0  0  0
    2.8944    1.7576    0.0000 C   0  0  0  0  0  0  0  0  0  0  0  0
    1.9280   -0.1308    0.0000 C   0  0  0  0  0  0  0  0  0  0  0  0
    0.8151    0.8749    0.0000 C   0  0  0  0  0  0  0  0  0  0  0  0
   -0.6124    0.4139    0.0000 C   0  0  0  0  0  0  0  0  0  0  0  0
   -1.7253    1.4196    0.0000 C   0  0  0  0  0  0  0  0  0  0  0  0
   -3.1527    0.9586    0.0000 C   0  0  0  0  0  0  0  0  0  0  0  0
   -3.4672   -0.5080    0.0000 C   0  0  0  0  0  0  0  0  0  0  0  0
   -2.3543   -1.5137    0.0000 C   0  0  0  0  0  0  0  0  0  0  0  0
   -0.9269   -1.0528    0.0000 C   0  0  0  0  0  0  0  0  0  0  0  0
    0.1861   -2.0584    0.0000 O   0  0  0  0  0  0  0  0  0  0  0  0
    1.6135   -1.5975    0.0000 C   0  0  0  0  0  0  0  0  0  0  0  0
    2.7264   -2.6032    0.0000 O   0  0  0  0  0  0  0  0  0  0  0  0
   -4.9592   -0.6622    0.0000 O   0  0  0  0  0  0  0  0  0  0  0  0
   -5.5669    0.7093    0.0000 C   0  0  0  0  0  0  0  0  0  0  0  0
   -4.4504    1.7109    0.0000 C   0  0  0  0  0  0  0  0  0  0  0  0
  1  2  2  0
  2  3  1  0
  3  4  1  0
  3  5  1  0
  3  6  1  0
  6  7  2  0
  7  8  1  0
  8  9  2  0
  9 10  1  0
 10 11  2  0
 11 12  1  0
 12 13  2  0
 13 14  1  0
 14 15  1  0
 15 16  2  0
 11 17  1  0
 17 18  1  0
 18 19  2  0
 15  6  1  0
 13  8  1  0
 19 10  1  0
M  END
>  <identifier>  (359) 
CNP0191008.0

>  <canonical_smiles>  (359) 
C=CC(C)(C)C1=CC2=CC3=C(C=C2OC1=O)OC=C3

>  <standard_inchi>  (359) 
InChI=1S/C16H14O3/c1-4-16(2,3)12-8-11-7-10-5-6-18-13(10)9-14(11)19-15(12)17/h4-9H,1H2,2-3H3

>  <standard_inchi_key>  (359) 
FYCCCUNGXGKNJV-UHFFFAOYSA-N

>  <name>  (359) 
Chalepensin

>  <iupac_name>  (359) 
6-(1,1-dimethylallyl)furo[3,2-g]chromen-7-one

>  <annotation_level>  (359) 
5

>  <total_atom_count>  (359) 
33

>  <heavy_atom_count>  (359) 
19

>  <molecular_weight>  (359) 
254.28

>  <exact_molecular_weight>  (359) 
254.09429

>  <molecular_formula>  (359) 
C16H14O3

>  <alogp>  (359) 
4.00

>  <topological_polar_surface_area>  (359) 
43.35

>  <rotatable_bond_count>  (359) 
2

>  <hydrogen_bond_acceptors>  (359) 
3

>  <hydrogen_bond_donors>  (359) 
0

>  <hydrogen_bond_acceptors_lipinski>  (359) 
3

>  <hydrogen_bond_donors_lipinski>  (359) 
0

>  <lipinski_rule_of_five_violations>  (359) 
0

>  <aromatic_rings_count>  (359) 
3

>  <qed_drug_likeliness>  (359) 
0.51

>  <formal_charge>  (359) 
0

>  <fractioncsp3>  (359) 
0.19

>  <number_of_minimal_rings>  (359) 
3

>  <van_der_walls_volume>  (359) 
226.87

>  <contains_sugar>  (359) 
False

>  <contains_ring_sugars>  (359) 
False

>  <contains_linear_sugars>  (359) 
False

>  <murcko_framework>  (359) 
o1ccc2cc3C=CCOc3cc12

>  <np_likeness>  (359) 
1.50

>  <chemical_class>  (359) 
Coumarins and derivatives

>  <chemical_sub_class>  (359) 
Furanocoumarins

>  <chemical_super_class>  (359) 
Phenylpropanoids and polyketides

>  <direct_parent_classification>  (359) 
Psoralens

>  <np_classifier_pathway>  (359) 
Shikimates and Phenylpropanoids

>  <np_classifier_superclass>  (359) 
Coumarins

>  <np_classifier_class>  (359) 
Furocoumarins

>  <np_classifier_is_glycoside>  (359) 
False

>  <organisms>  (359) 
Boenninghausenia sp.|Boenninghausenia spp.|Psilopeganum sinense|Ruta chalepensis|Ruta graveolens|Ruta graveolens L.|Stauranthus perforatus

>  <collections>  (359) 
AnalytiCon Discovery NPs|BIOFACQUIM|CMAUP (cCollective molecular activities of useful plants)|ChEBI NPs|KNApSaCK|Latin America dataset|NPASS|NPEdia|Phyto4Health|PubChem NPs|Specs Natural Products|Super Natural II|TCMDB-Taiwan (Traditional Chinese Medicine database)|TCMID (Traditional Chinese Medicine Integrated Database)|TPPT (Toxic Plants–PhytoToxins)|UNPD (Universal Natural Products Database)|VietHerb|ZINC NP

>  <dois>  (359) 
10.1002/9780470744307.gat218|10.1002/biuz.19840140514|10.1002/food.19880321030|10.1016/j.phytochem.2004.12.028

>  <synonyms>  (359) 
13164-03-9|3-(alpha|alpha-Dimethylallyl)psoralen|Xyloltenin|6-(2-methylbut-3-en-2-yl)-7h-furo3|2-gchromen-7-one|CHEBI:3572|6-(1|1-dimethylallyl)furo3|2-gchromen-7-one|SMR000156206|6-(1|1-Dimethylallyl)-7H-furo(3|2-g)(1)benzopyran-7-one|Dimethyl allyl psoralene|6-(1|1-Dimethyl-2-propenyl)-7H-furo(3|2-g)(1)benzopyran-7-one|TGU8MP93CA|MLS000574854|MLS000876991|MEGxp0_000992|CHEMBL1333931|SCHEMBL15941545|ACon1_001036|DTXSID90157153|FYCCCUNGXGKNJV-UHFFFAOYSA-N|HMS2202C08|HMS3352N04|7H-Furo(3|2-g)(1)benzopyran-7-one| 6-(1|1-dimethylallyl)-|HY-N8382|AKOS040761478|NCGC00169737-01|CS-0143785|NS00094831|C09165|Psoralen| 3-(.alpha.|.alpha.-dimethylallyl)-|BRD-K01892695-001-01-2|Q27106137|7H-Furo3|2-g1benzopyran-7-one| 6-(1|1-dimethyl-2-propen-1-yl)-|InChI=1\/C16H14O3\/c1-4-16(2|3)12-8-11-7-10-5-6-18-13(10)9-14(11)19-15(12)17\/h4-9H|1H2|2-3H|Chalepensin

>  <cas>  (359) 
13164-03-9

$$$$

     RDKit          2D

 17 19  0  0  0  0  0  0  0  0999 V2000
   -5.3404   -1.4688    0.0000 C   0  0  0  0  0  0  0  0  0  0  0  0
   -4.6536   -0.1353    0.0000 C   0  0  0  0  0  0  0  0  0  0  0  0
   -5.4651    1.1262    0.0000 C   0  0  0  0  0  0  0  0  0  0  0  0
   -3.1553   -0.0633    0.0000 C   0  0  0  0  0  0  0  0  0  0  0  0
   -2.3329    1.1911    0.0000 C   0  0  0  0  0  0  0  0  0  0  0  0
   -0.8857    0.7966    0.0000 C   0  0  0  0  0  0  0  0  0  0  0  0
    0.3758    1.6081    0.0000 C   0  0  0  0  0  0  0  0  0  0  0  0
    1.7094    0.9214    0.0000 C   0  0  0  0  0  0  0  0  0  0  0  0
    1.7814   -0.5769    0.0000 C   0  0  0  0  0  0  0  0  0  0  0  0
    0.5198   -1.3884    0.0000 C   0  0  0  0  0  0  0  0  0  0  0  0
   -0.8137   -0.7016    0.0000 C   0  0  0  0  0  0  0  0  0  0  0  0
   -2.2164   -1.2331    0.0000 O   0  0  0  0  0  0  0  0  0  0  0  0
    3.1149   -1.2637    0.0000 O   0  0  0  0  0  0  0  0  0  0  0  0
    4.3764   -0.4522    0.0000 C   0  0  0  0  0  0  0  0  0  0  0  0
    5.7100   -1.1390    0.0000 O   0  0  0  0  0  0  0  0  0  0  0  0
    4.3044    1.0461    0.0000 C   0  0  0  0  0  0  0  0  0  0  0  0
    2.9709    1.7328    0.0000 C   0  0  0  0  0  0  0  0  0  0  0  0
  1  2  2  0
  2  3  1  0
  4  2  1  1
  4  5  1  0
  5  6  1  0
  6  7  2  0
  7  8  1  0
  8  9  2  0
  9 10  1  0
 10 11  2  0
 11 12  1  0
  9 13  1  0
 13 14  1  0
 14 15  2  0
 14 16  1  0
 16 17  2  0
 12  4  1  0
 11  6  1  0
 17  8  1  0
M  END
>  <identifier>  (360) 
CNP0250557.1

>  <canonical_smiles>  (360) 
C=C(C)[C@H]1CC2=CC3=C(C=C2O1)OC(=O)C=C3

>  <standard_inchi>  (360) 
InChI=1S/C14H12O3/c1-8(2)11-6-10-5-9-3-4-14(15)17-12(9)7-13(10)16-11/h3-5,7,11H,1,6H2,2H3/t11-/m1/s1

>  <standard_inchi_key>  (360) 
VMWUHWZFDITAOL-LLVKDONJSA-N

>  <name>  (360) 
(2R)-2-prop-1-en-2-yl-2,3-dihydrofuro[3,2-g]chromen-7-one

>  <iupac_name>  (360) 
(2~{R})-2-isopropenyl-2,3-dihydrofuro[3,2-g]chromen-7-one

>  <annotation_level>  (360) 
5

>  <total_atom_count>  (360) 
29

>  <heavy_atom_count>  (360) 
17

>  <molecular_weight>  (360) 
228.25

>  <exact_molecular_weight>  (360) 
228.07864

>  <molecular_formula>  (360) 
C14H12O3

>  <alogp>  (360) 
2.67

>  <topological_polar_surface_area>  (360) 
39.44

>  <rotatable_bond_count>  (360) 
1

>  <hydrogen_bond_acceptors>  (360) 
3

>  <hydrogen_bond_donors>  (360) 
0

>  <hydrogen_bond_acceptors_lipinski>  (360) 
3

>  <hydrogen_bond_donors_lipinski>  (360) 
0

>  <lipinski_rule_of_five_violations>  (360) 
0

>  <aromatic_rings_count>  (360) 
2

>  <qed_drug_likeliness>  (360) 
0.56

>  <formal_charge>  (360) 
0

>  <fractioncsp3>  (360) 
0.21

>  <number_of_minimal_rings>  (360) 
3

>  <van_der_walls_volume>  (360) 
202.92

>  <contains_sugar>  (360) 
False

>  <contains_ring_sugars>  (360) 
False

>  <contains_linear_sugars>  (360) 
False

>  <murcko_framework>  (360) 
O1c2cc3OCCc3cc2C=CC1

>  <np_likeness>  (360) 
1.48

>  <chemical_class>  (360) 
Coumarins and derivatives

>  <chemical_sub_class>  (360) 
Furanocoumarins

>  <chemical_super_class>  (360) 
Phenylpropanoids and polyketides

>  <direct_parent_classification>  (360) 
Psoralens

>  <np_classifier_pathway>  (360) 
Shikimates and Phenylpropanoids

>  <np_classifier_superclass>  (360) 
Coumarins

>  <np_classifier_class>  (360) 
Furocoumarins

>  <np_classifier_is_glycoside>  (360) 
False

>  <organisms>  (360) 
Ammi majus|Stauranthus perforatus|Zanthoxylum spinosum

>  <collections>  (360) 
Australian natural products|BIOFACQUIM|CMAUP (cCollective molecular activities of useful plants)|InterBioScreen Ltd|KNApSaCK|Latin America dataset|NPASS|Super Natural II|TCMDB-Taiwan (Traditional Chinese Medicine database)|ZINC NP

>  <dois>  (360) 
10.1007/bf00594048|10.1016/j.phytochem.2004.12.028

>  <synonyms>  (360) 
CHEMBL306543|55102-40-4|Oprea1_478213|DTXSID101155330|BDBM50404363|AKOS030503395|(2R)-2|3-Dihydro-2-(1-methylethenyl)-7H-furo3|2-g1benzopyran-7-one|Ammirin|ammirin

>  <cas>  (360) 
55102-40-4

$$$$

     RDKit          2D

 17 19  0  0  0  0  0  0  0  0999 V2000
   -5.4651    1.1262    0.0000 C   0  0  0  0  0  0  0  0  0  0  0  0
   -4.6536   -0.1353    0.0000 C   0  0  0  0  0  0  0  0  0  0  0  0
   -5.3404   -1.4688    0.0000 C   0  0  0  0  0  0  0  0  0  0  0  0
   -3.1553   -0.0633    0.0000 C   0  0  0  0  0  0  0  0  0  0  0  0
   -2.3329    1.1911    0.0000 C   0  0  0  0  0  0  0  0  0  0  0  0
   -0.8857    0.7966    0.0000 C   0  0  0  0  0  0  0  0  0  0  0  0
    0.3758    1.6081    0.0000 C   0  0  0  0  0  0  0  0  0  0  0  0
    1.7094    0.9214    0.0000 C   0  0  0  0  0  0  0  0  0  0  0  0
    1.7814   -0.5769    0.0000 C   0  0  0  0  0  0  0  0  0  0  0  0
    0.5198   -1.3884    0.0000 C   0  0  0  0  0  0  0  0  0  0  0  0
   -0.8137   -0.7016    0.0000 C   0  0  0  0  0  0  0  0  0  0  0  0
   -2.2164   -1.2331    0.0000 O   0  0  0  0  0  0  0  0  0  0  0  0
    3.1149   -1.2637    0.0000 O   0  0  0  0  0  0  0  0  0  0  0  0
    4.3764   -0.4522    0.0000 C   0  0  0  0  0  0  0  0  0  0  0  0
    5.7100   -1.1390    0.0000 O   0  0  0  0  0  0  0  0  0  0  0  0
    4.3044    1.0461    0.0000 C   0  0  0  0  0  0  0  0  0  0  0  0
    2.9709    1.7328    0.0000 C   0  0  0  0  0  0  0  0  0  0  0  0
  1  2  1  0
  2  3  1  0
  2  4  1  0
  4  5  2  0
  5  6  1  0
  6  7  2  0
  7  8  1  0
  8  9  2  0
  9 10  1  0
 10 11  2  0
 11 12  1  0
  9 13  1  0
 13 14  1  0
 14 15  2  0
 14 16  1  0
 16 17  2  0
 12  4  1  0
 11  6  1  0
 17  8  1  0
M  END
>  <identifier>  (361) 
CNP0261778.0

>  <canonical_smiles>  (361) 
CC(C)C1=CC2=CC3=C(C=C2O1)OC(=O)C=C3

>  <standard_inchi>  (361) 
InChI=1S/C14H12O3/c1-8(2)11-6-10-5-9-3-4-14(15)17-12(9)7-13(10)16-11/h3-8H,1-2H3

>  <standard_inchi_key>  (361) 
KVHBNBMOEQQULB-UHFFFAOYSA-N

>  <name>  (361) 
2-isopropyl-7H-furo[3,2-g]chromen-7-one

>  <iupac_name>  (361) 
2-isopropylfuro[3,2-g]chromen-7-one

>  <annotation_level>  (361) 
5

>  <total_atom_count>  (361) 
29

>  <heavy_atom_count>  (361) 
17

>  <molecular_weight>  (361) 
228.25

>  <exact_molecular_weight>  (361) 
228.07864

>  <molecular_formula>  (361) 
C14H12O3

>  <alogp>  (361) 
3.66

>  <topological_polar_surface_area>  (361) 
43.35

>  <rotatable_bond_count>  (361) 
1

>  <hydrogen_bond_acceptors>  (361) 
3

>  <hydrogen_bond_donors>  (361) 
0

>  <hydrogen_bond_acceptors_lipinski>  (361) 
3

>  <hydrogen_bond_donors_lipinski>  (361) 
0

>  <lipinski_rule_of_five_violations>  (361) 
0

>  <aromatic_rings_count>  (361) 
3

>  <qed_drug_likeliness>  (361) 
0.60

>  <formal_charge>  (361) 
0

>  <fractioncsp3>  (361) 
0.21

>  <number_of_minimal_rings>  (361) 
3

>  <van_der_walls_volume>  (361) 
201.21

>  <contains_sugar>  (361) 
False

>  <contains_ring_sugars>  (361) 
False

>  <contains_linear_sugars>  (361) 
False

>  <murcko_framework>  (361) 
o1ccc2cc3C=CCOc3cc12

>  <np_likeness>  (361) 
0.58

>  <chemical_class>  (361) 
Coumarins and derivatives

>  <chemical_sub_class>  (361) 
Furanocoumarins

>  <chemical_super_class>  (361) 
Phenylpropanoids and polyketides

>  <direct_parent_classification>  (361) 
Psoralens

>  <np_classifier_pathway>  (361) 
Shikimates and Phenylpropanoids

>  <np_classifier_superclass>  (361) 
Coumarins

>  <np_classifier_class>  (361) 
Furocoumarins

>  <np_classifier_is_glycoside>  (361) 
False

>  <organisms>  (361) 
Angelica acutiloba|Angelica gigas|Angelica sinensis|Stauranthus perforatus

>  <collections>  (361) 
BIOFACQUIM|CMAUP (cCollective molecular activities of useful plants)|InterBioScreen Ltd|KNApSaCK|Latin America dataset|NPASS|Super Natural II|TCMDB-Taiwan (Traditional Chinese Medicine database)|TCMID (Traditional Chinese Medicine Integrated Database)|UNPD (Universal Natural Products Database)|ZINC NP

>  <dois>  (361) 
10.1016/j.phytochem.2004.12.028

>  <synonyms>  (361) 
2-(propan-2-yl)-7H-furo3|2-gchromen-7-one|2-Isopropylpsoralen|2-Isopropyl-furo3|2-gchromen-7-one|Oprea1_201299|Oprea1_434047|1215-38-9|MLS001212338|CHEMBL1586775|SCHEMBL16772357|KVHBNBMOEQQULB-UHFFFAOYSA-N|HMS1607M15|HMS2855L14|STK396317|AKOS000546751|CCG-344416|SMR000504766|AB00080822-01|BRD-K53857224-001-07-9|2\u201a\u00c4\u2264-isopropyl-psoralene|Anhydromarmesin

>  <cas>  (361) 
1215-38-9

$$$$

     RDKit          2D

 31 33  0  0  0  0  0  0  0  0999 V2000
    7.9248    0.3540    0.0000 C   0  0  0  0  0  0  0  0  0  0  0  0
    6.6827   -0.4870    0.0000 C   0  0  0  0  0  0  0  0  0  0  0  0
    5.3334    0.1681    0.0000 C   0  0  0  0  0  0  0  0  0  0  0  0
    5.9885    1.5175    0.0000 C   0  0  0  0  0  0  0  0  0  0  0  0
    4.6782   -1.1813    0.0000 C   0  0  0  0  0  0  0  0  0  0  0  0
    3.9840    0.8232    0.0000 C   0  0  0  0  0  0  0  0  0  0  0  0
    2.6608    0.1166    0.0000 C   0  0  0  0  0  0  0  0  0  0  0  0
    2.4548   -1.3691    0.0000 C   0  0  0  0  0  0  0  0  0  0  0  0
    1.0650   -1.9335    0.0000 C   0  0  0  0  0  0  0  0  0  0  0  0
   -0.1187   -1.0122    0.0000 N   0  0  0  0  0  0  0  0  0  0  0  0
   -1.5084   -1.5766    0.0000 C   0  0  0  0  0  0  0  0  0  0  0  0
   -1.7145   -3.0624    0.0000 O   0  0  0  0  0  0  0  0  0  0  0  0
   -2.6921   -0.6552    0.0000 C   0  0  0  0  0  0  0  0  0  0  0  0
   -2.4860    0.8305    0.0000 O   0  0  0  0  0  0  0  0  0  0  0  0
   -4.0819   -1.2197    0.0000 C   0  0  0  0  0  0  0  0  0  0  0  0
   -5.2656   -0.2983    0.0000 C   0  0  0  0  0  0  0  0  0  0  0  0
   -5.0595    1.1875    0.0000 C   0  0  0  0  0  0  0  0  0  0  0  0
   -6.2432    2.1088    0.0000 C   0  0  0  0  0  0  0  0  0  0  0  0
   -7.6329    1.5444    0.0000 C   0  0  0  0  0  0  0  0  0  0  0  0
   -7.8390    0.0586    0.0000 C   0  0  0  0  0  0  0  0  0  0  0  0
   -6.6553   -0.8627    0.0000 C   0  0  0  0  0  0  0  0  0  0  0  0
    0.8589   -3.4193    0.0000 C   0  0  0  0  0  0  0  0  0  0  0  0
    2.0426   -4.3407    0.0000 O   0  0  0  0  0  0  0  0  0  0  0  0
   -0.5309   -3.9837    0.0000 O   0  0  0  0  0  0  0  0  0  0  0  0
    1.5799    1.1567    0.0000 C   0  0  0  0  0  0  0  0  0  0  0  0
    0.0838    1.0494    0.0000 C   0  0  0  0  0  0  0  0  0  0  0  0
   -0.7572    2.2914    0.0000 C   0  0  0  0  0  0  0  0  0  0  0  0
   -0.1021    3.6408    0.0000 C   0  0  0  0  0  0  0  0  0  0  0  0
    1.3940    3.7481    0.0000 C   0  0  0  0  0  0  0  0  0  0  0  0
    2.2351    2.5061    0.0000 C   0  0  0  0  0  0  0  0  0  0  0  0
    3.7209    2.3000    0.0000 N   0  0  0  0  0  0  0  0  0  0  0  0
  1  2  2  0
  2  3  1  0
  3  4  1  0
  3  5  1  0
  3  6  1  0
  6  7  2  0
  7  8  1  0
  9  8  1  1
  9 10  1  0
 10 11  1  0
 11 12  2  0
 11 13  1  0
 13 14  1  0
 13 15  1  0
 15 16  1  0
 16 17  2  0
 17 18  1  0
 18 19  2  0
 19 20  1  0
 20 21  2  0
  9 22  1  0
 22 23  2  0
 22 24  1  0
  7 25  1  0
 25 26  2  0
 26 27  1  0
 27 28  2  0
 28 29  1  0
 29 30  2  0
 30 31  1  0
 31  6  1  0
 21 16  1  0
 30 25  1  0
M  END
>  <identifier>  (362) 
CNP0080284.1

>  <canonical_smiles>  (362) 
C=CC(C)(C)C1=C(C[C@H](NC(=O)C(O)CC2=CC=CC=C2)C(=O)O)C2=CC=CC=C2N1

>  <standard_inchi>  (362) 
InChI=1S/C25H28N2O4/c1-4-25(2,3)22-18(17-12-8-9-13-19(17)26-22)15-20(24(30)31)27-23(29)21(28)14-16-10-6-5-7-11-16/h4-13,20-21,26,28H,1,14-15H2,2-3H3,(H,27,29)(H,30,31)/t20-,21?/m0/s1

>  <standard_inchi_key>  (362) 
PNCQKGVAPWZYRN-BGERDNNASA-N

>  <name>  (362) 
nan

>  <iupac_name>  (362) 
(2~{S})-3-[2-(1,1-dimethylallyl)-1~{H}-indol-3-yl]-2-[(2-hydroxy-3-phenyl-propanoyl)amino]propanoic acid

>  <annotation_level>  (362) 
5

>  <total_atom_count>  (362) 
59

>  <heavy_atom_count>  (362) 
31

>  <molecular_weight>  (362) 
420.51

>  <exact_molecular_weight>  (362) 
420.20491

>  <molecular_formula>  (362) 
C25H28N2O4

>  <alogp>  (362) 
3.35

>  <topological_polar_surface_area>  (362) 
102.42

>  <rotatable_bond_count>  (362) 
9

>  <hydrogen_bond_acceptors>  (362) 
3

>  <hydrogen_bond_donors>  (362) 
4

>  <hydrogen_bond_acceptors_lipinski>  (362) 
3

>  <hydrogen_bond_donors_lipinski>  (362) 
4

>  <lipinski_rule_of_five_violations>  (362) 
0

>  <aromatic_rings_count>  (362) 
3

>  <qed_drug_likeliness>  (362) 
0.40

>  <formal_charge>  (362) 
0

>  <fractioncsp3>  (362) 
0.28

>  <number_of_minimal_rings>  (362) 
3

>  <van_der_walls_volume>  (362) 
394.03

>  <contains_sugar>  (362) 
False

>  <contains_ring_sugars>  (362) 
False

>  <contains_linear_sugars>  (362) 
False

>  <murcko_framework>  (362) 
c1ccc(cc1)CCCNCCc2c[nH]c3ccccc32

>  <np_likeness>  (362) 
1.07

>  <chemical_class>  (362) 
Carboxylic acids and derivatives

>  <chemical_sub_class>  (362) 
Amino acids, peptides, and analogues

>  <chemical_super_class>  (362) 
Organic acids and derivatives

>  <direct_parent_classification>  (362) 
N-acyl-alpha amino acids

>  <np_classifier_pathway>  (362) 
Amino acids and Peptides

>  <np_classifier_superclass>  (362) 
nan

>  <np_classifier_class>  (362) 
nan

>  <np_classifier_is_glycoside>  (362) 
False

>  <organisms>  (362) 
Aspergillus sp.|Aspergillus sp. MEXU 27858

>  <collections>  (362) 
BIOFACQUIM|CMNPD|Latin America dataset

>  <dois>  (362) 
10.1021/acs.jnatprod.7b00331|10.1039/c8np00092a

>  <synonyms>  (362) 
4 9-dideoxy-seco-PF1233 B carboxylic acid

>  <cas>  (362) 
nan

$$$$

     RDKit          2D

 23 25  0  0  0  0  0  0  0  0999 V2000
    6.2087    2.5456    0.0000 C   0  0  0  0  0  0  0  0  0  0  0  0
    6.0066    1.0592    0.0000 C   0  0  0  0  0  0  0  0  0  0  0  0
    4.6184    0.4911    0.0000 C   0  0  0  0  0  0  0  0  0  0  0  0
    5.1866   -0.8972    0.0000 C   0  0  0  0  0  0  0  0  0  0  0  0
    4.0502    1.8793    0.0000 C   0  0  0  0  0  0  0  0  0  0  0  0
    3.2302   -0.0771    0.0000 C   0  0  0  0  0  0  0  0  0  0  0  0
    2.0440    0.8410    0.0000 C   0  0  0  0  0  0  0  0  0  0  0  0
    0.6558    0.2728    0.0000 C   0  0  0  0  0  0  0  0  0  0  0  0
   -0.5304    1.1910    0.0000 C   0  0  0  0  0  0  0  0  0  0  0  0
   -1.9186    0.6228    0.0000 C   0  0  0  0  0  0  0  0  0  0  0  0
   -2.1207   -0.8635    0.0000 C   0  0  0  0  0  0  0  0  0  0  0  0
   -0.9345   -1.7817    0.0000 C   0  0  0  0  0  0  0  0  0  0  0  0
    0.4537   -1.2135    0.0000 C   0  0  0  0  0  0  0  0  0  0  0  0
    1.6399   -2.1316    0.0000 O   0  0  0  0  0  0  0  0  0  0  0  0
    3.0281   -1.5635    0.0000 C   0  0  0  0  0  0  0  0  0  0  0  0
    4.2143   -2.4816    0.0000 O   0  0  0  0  0  0  0  0  0  0  0  0
   -3.5967   -1.1307    0.0000 O   0  0  0  0  0  0  0  0  0  0  0  0
   -4.3069    0.1906    0.0000 C   0  0  0  0  0  0  0  0  0  0  0  0
   -5.7932    0.3926    0.0000 C   0  0  0  0  0  0  0  0  0  0  0  0
   -5.9952   -1.0937    0.0000 C   0  0  0  0  0  0  0  0  0  0  0  0
   -5.5911    1.8790    0.0000 C   0  0  0  0  0  0  0  0  0  0  0  0
   -7.2795    0.5947    0.0000 O   0  0  0  0  0  0  0  0  0  0  0  0
   -3.2698    1.2743    0.0000 C   0  0  0  0  0  0  0  0  0  0  0  0
  1  2  2  0
  2  3  1  0
  3  4  1  0
  3  5  1  0
  3  6  1  0
  6  7  2  0
  7  8  1  0
  8  9  2  0
  9 10  1  0
 10 11  2  0
 11 12  1  0
 12 13  2  0
 13 14  1  0
 14 15  1  0
 15 16  2  0
 11 17  1  0
 17 18  1  0
 18 19  1  1
 19 20  1  0
 19 21  1  0
 19 22  1  0
 18 23  1  0
 15  6  1  0
 13  8  1  0
 23 10  1  0
M  END
>  <identifier>  (363) 
CNP0210737.1

>  <canonical_smiles>  (363) 
C=CC(C)(C)C1=CC2=CC3=C(C=C2OC1=O)O[C@@H](C(C)(C)O)C3

>  <standard_inchi>  (363) 
InChI=1S/C19H22O4/c1-6-18(2,3)13-8-11-7-12-9-16(19(4,5)21)22-14(12)10-15(11)23-17(13)20/h6-8,10,16,21H,1,9H2,2-5H3/t16-/m1/s1

>  <standard_inchi_key>  (363) 
JCDLLLXYAICSQV-MRXNPFEDSA-N

>  <name>  (363) 
(2R)-2-(2-hydroxypropan-2-yl)-6-(2-methylbut-3-en-2-yl)-2,3-dihydrofuro[3,2-g]chromen-7-one

>  <iupac_name>  (363) 
(2~{R})-6-(1,1-dimethylallyl)-2-(1-hydroxy-1-methyl-ethyl)-2,3-dihydrofuro[3,2-g]chromen-7-one

>  <annotation_level>  (363) 
5

>  <total_atom_count>  (363) 
45

>  <heavy_atom_count>  (363) 
23

>  <molecular_weight>  (363) 
314.38

>  <exact_molecular_weight>  (363) 
314.15181

>  <molecular_formula>  (363) 
C19H22O4

>  <alogp>  (363) 
3.33

>  <topological_polar_surface_area>  (363) 
59.67

>  <rotatable_bond_count>  (363) 
3

>  <hydrogen_bond_acceptors>  (363) 
4

>  <hydrogen_bond_donors>  (363) 
1

>  <hydrogen_bond_acceptors_lipinski>  (363) 
4

>  <hydrogen_bond_donors_lipinski>  (363) 
1

>  <lipinski_rule_of_five_violations>  (363) 
0

>  <aromatic_rings_count>  (363) 
2

>  <qed_drug_likeliness>  (363) 
0.70

>  <formal_charge>  (363) 
0

>  <fractioncsp3>  (363) 
0.42

>  <number_of_minimal_rings>  (363) 
3

>  <van_der_walls_volume>  (363) 
291.60

>  <contains_sugar>  (363) 
False

>  <contains_ring_sugars>  (363) 
False

>  <contains_linear_sugars>  (363) 
False

>  <murcko_framework>  (363) 
O1c2cc3OCCc3cc2C=CC1

>  <np_likeness>  (363) 
2.23

>  <chemical_class>  (363) 
Coumarins and derivatives

>  <chemical_sub_class>  (363) 
Furanocoumarins

>  <chemical_super_class>  (363) 
Phenylpropanoids and polyketides

>  <direct_parent_classification>  (363) 
Psoralens

>  <np_classifier_pathway>  (363) 
Shikimates and Phenylpropanoids

>  <np_classifier_superclass>  (363) 
Coumarins

>  <np_classifier_class>  (363) 
Furocoumarins

>  <np_classifier_is_glycoside>  (363) 
False

>  <organisms>  (363) 
Aeollanthus buchnerianus|Cetorhinus maximus|Cynoglossum viridiflorum|Echium plantagineum|Helianthus niveus|Helietta longifoliata|Hernandia sonora|Leptospermum recurvum|Parmelia damaziana|Ruta chalepensis|Ruta graveolens|Stauranthus perforatus

>  <collections>  (363) 
BIOFACQUIM|CMAUP (cCollective molecular activities of useful plants)|KNApSaCK|Latin America dataset|NPASS|Super Natural II|TCMDB-Taiwan (Traditional Chinese Medicine database)|ZINC NP

>  <dois>  (363) 
10.1016/j.phytochem.2004.12.028|10.1021/acs.jnatprod.6b00415

>  <synonyms>  (363) 
CHEMBL67815|(R)-6-(1|1-Dimethyl-allyl)-2-(1-hydroxy-1-methyl-ethyl)-2|3-dihydro-furo3|2-gchromen-7-one|118389-19-8|C19H22O4|BDBM50240591|(2R)-2-(2-hydroxypropan-2-yl)-6-(2-methylbut-3-en-2-yl)-2|3-dihydrofuro3|2-gchromen-7-one|Chalepin|Heliettin

>  <cas>  (363) 
118389-19-8

$$$$

     RDKit          2D

 26 31  0  0  0  0  0  0  0  0999 V2000
   -3.5976    1.3936    0.0000 C   0  0  0  0  0  0  0  0  0  0  0  0
   -5.0361    1.8185    0.0000 C   0  0  0  0  0  0  0  0  0  0  0  0
   -6.1234    0.7852    0.0000 C   0  0  0  0  0  0  0  0  0  0  0  0
   -5.7721   -0.6731    0.0000 C   0  0  0  0  0  0  0  0  0  0  0  0
   -4.3336   -1.0981    0.0000 C   0  0  0  0  0  0  0  0  0  0  0  0
   -3.2463   -0.0647    0.0000 C   0  0  0  0  0  0  0  0  0  0  0  0
   -1.8078   -0.4897    0.0000 C   0  0  0  0  0  0  0  0  0  0  0  0
   -1.3060   -1.9033    0.0000 O   0  0  0  0  0  0  0  0  0  0  0  0
    0.1935   -1.8629    0.0000 C   0  0  0  0  0  0  0  0  0  0  0  0
    0.6184   -0.4243    0.0000 C   0  0  0  0  0  0  0  0  0  0  0  0
   -0.6184    0.4243    0.0000 C   0  0  0  0  0  0  0  0  0  0  0  0
   -0.1935    1.8629    0.0000 C   0  0  0  0  0  0  0  0  0  0  0  0
    1.3060    1.9033    0.0000 O   0  0  0  0  0  0  0  0  0  0  0  0
    1.8078    0.4897    0.0000 C   0  0  0  0  0  0  0  0  0  0  0  0
    3.2463    0.0647    0.0000 C   0  0  0  0  0  0  0  0  0  0  0  0
    3.5976   -1.3936    0.0000 C   0  0  0  0  0  0  0  0  0  0  0  0
    5.0361   -1.8185    0.0000 C   0  0  0  0  0  0  0  0  0  0  0  0
    6.1234   -0.7852    0.0000 C   0  0  0  0  0  0  0  0  0  0  0  0
    7.6189   -0.9017    0.0000 O   0  0  0  0  0  0  0  0  0  0  0  0
    8.1919    0.4845    0.0000 C   0  0  0  0  0  0  0  0  0  0  0  0
    7.0505    1.4578    0.0000 O   0  0  0  0  0  0  0  0  0  0  0  0
    5.7721    0.6731    0.0000 C   0  0  0  0  0  0  0  0  0  0  0  0
    4.3336    1.0981    0.0000 C   0  0  0  0  0  0  0  0  0  0  0  0
   -7.0505   -1.4578    0.0000 O   0  0  0  0  0  0  0  0  0  0  0  0
   -8.1919   -0.4845    0.0000 C   0  0  0  0  0  0  0  0  0  0  0  0
   -7.6189    0.9017    0.0000 O   0  0  0  0  0  0  0  0  0  0  0  0
  1  2  2  0
  2  3  1  0
  3  4  2  0
  4  5  1  0
  5  6  2  0
  7  6  1  6
  7  8  1  0
  8  9  1  0
  9 10  1  0
 10 11  1  0
 11 12  1  0
 12 13  1  0
 13 14  1  0
 14 15  1  1
 15 16  2  0
 16 17  1  0
 17 18  2  0
 18 19  1  0
 19 20  1  0
 20 21  1  0
 21 22  1  0
 22 23  2  0
  4 24  1  0
 24 25  1  0
 25 26  1  0
  6  1  1  0
 11  7  1  0
 23 15  1  0
 26  3  1  0
 14 10  1  0
 22 18  1  0
M  END
>  <identifier>  (364) 
CNP0123354.1

>  <canonical_smiles>  (364) 
C1=CC2=C(C=C1[C@H]1OCC3C1CO[C@H]3C1=CC=C3OCOC3=C1)OCO2

>  <standard_inchi>  (364) 
InChI=1S/C20H18O6/c1-3-15-17(25-9-23-15)5-11(1)19-13-7-22-20(14(13)8-21-19)12-2-4-16-18(6-12)26-10-24-16/h1-6,13-14,19-20H,7-10H2/t13?,14?,19-,20+

>  <standard_inchi_key>  (364) 
PEYUIKBAABKQKQ-ZEXZITLMSA-N

>  <name>  (364) 
nan

>  <iupac_name>  (364) 
5-[(3~{S},6~{R})-3-(1,3-benzodioxol-5-yl)-1,3,3~{a},4,6,6~{a}-hexahydrofuro[3,4-c]furan-6-yl]-1,3-benzodioxole

>  <annotation_level>  (364) 
5

>  <total_atom_count>  (364) 
44

>  <heavy_atom_count>  (364) 
26

>  <molecular_weight>  (364) 
354.36

>  <exact_molecular_weight>  (364) 
354.11034

>  <molecular_formula>  (364) 
C20H18O6

>  <alogp>  (364) 
3.22

>  <topological_polar_surface_area>  (364) 
55.38

>  <rotatable_bond_count>  (364) 
2

>  <hydrogen_bond_acceptors>  (364) 
6

>  <hydrogen_bond_donors>  (364) 
0

>  <hydrogen_bond_acceptors_lipinski>  (364) 
6

>  <hydrogen_bond_donors_lipinski>  (364) 
0

>  <lipinski_rule_of_five_violations>  (364) 
0

>  <aromatic_rings_count>  (364) 
2

>  <qed_drug_likeliness>  (364) 
0.83

>  <formal_charge>  (364) 
0

>  <fractioncsp3>  (364) 
0.40

>  <number_of_minimal_rings>  (364) 
6

>  <van_der_walls_volume>  (364) 
297.46

>  <contains_sugar>  (364) 
False

>  <contains_ring_sugars>  (364) 
False

>  <contains_linear_sugars>  (364) 
False

>  <murcko_framework>  (364) 
O1c2ccc(cc2OC1)C3OCC4C(OCC34)c5ccc6OCOc6c5

>  <np_likeness>  (364) 
0.75

>  <chemical_class>  (364) 
Furanoid lignans

>  <chemical_sub_class>  (364) 
Furan lignans

>  <chemical_super_class>  (364) 
Lignans, neolignans and related compounds

>  <direct_parent_classification>  (364) 
Furan lignans

>  <np_classifier_pathway>  (364) 
Shikimates and Phenylpropanoids

>  <np_classifier_superclass>  (364) 
Lignans

>  <np_classifier_class>  (364) 
Furofuranoid lignans

>  <np_classifier_is_glycoside>  (364) 
False

>  <organisms>  (364) 
Stauranthus perforatus

>  <collections>  (364) 
BIOFACQUIM|Latin America dataset

>  <dois>  (364) 
10.1016/j.phytochem.2004.12.028

>  <synonyms>  (364) 
Asarinin

>  <cas>  (364) 
nan

$$$$

     RDKit          2D

 27 31  0  0  0  0  0  0  0  0999 V2000
    8.4844   -0.9638    0.0000 C   0  0  0  0  0  0  0  0  0  0  0  0
    7.4948    0.1635    0.0000 O   0  0  0  0  0  0  0  0  0  0  0  0
    6.0238   -0.1299    0.0000 C   0  0  0  0  0  0  0  0  0  0  0  0
    5.5423   -1.5506    0.0000 C   0  0  0  0  0  0  0  0  0  0  0  0
    4.0713   -1.8439    0.0000 C   0  0  0  0  0  0  0  0  0  0  0  0
    3.0817   -0.7167    0.0000 C   0  0  0  0  0  0  0  0  0  0  0  0
    1.6107   -1.0101    0.0000 C   0  0  0  0  0  0  0  0  0  0  0  0
    0.9834   -2.3726    0.0000 O   0  0  0  0  0  0  0  0  0  0  0  0
   -0.5063   -2.1971    0.0000 C   0  0  0  0  0  0  0  0  0  0  0  0
   -0.7997   -0.7260    0.0000 C   0  0  0  0  0  0  0  0  0  0  0  0
    0.5087    0.0076    0.0000 C   0  0  0  0  0  0  0  0  0  0  0  0
    0.2153    1.4786    0.0000 C   0  0  0  0  0  0  0  0  0  0  0  0
   -1.2744    1.6541    0.0000 O   0  0  0  0  0  0  0  0  0  0  0  0
   -1.9017    0.2916    0.0000 C   0  0  0  0  0  0  0  0  0  0  0  0
   -3.3727   -0.0018    0.0000 C   0  0  0  0  0  0  0  0  0  0  0  0
   -3.8542   -1.4224    0.0000 C   0  0  0  0  0  0  0  0  0  0  0  0
   -5.3252   -1.7158    0.0000 C   0  0  0  0  0  0  0  0  0  0  0  0
   -6.3148   -0.5886    0.0000 C   0  0  0  0  0  0  0  0  0  0  0  0
   -7.8147   -0.5697    0.0000 O   0  0  0  0  0  0  0  0  0  0  0  0
   -8.2602    0.8626    0.0000 C   0  0  0  0  0  0  0  0  0  0  0  0
   -7.0357    1.7290    0.0000 O   0  0  0  0  0  0  0  0  0  0  0  0
   -5.8333    0.8321    0.0000 C   0  0  0  0  0  0  0  0  0  0  0  0
   -4.3623    1.1255    0.0000 C   0  0  0  0  0  0  0  0  0  0  0  0
    3.5631    0.7039    0.0000 C   0  0  0  0  0  0  0  0  0  0  0  0
    5.0342    0.9973    0.0000 C   0  0  0  0  0  0  0  0  0  0  0  0
    5.5156    2.4180    0.0000 O   0  0  0  0  0  0  0  0  0  0  0  0
    4.5260    3.5452    0.0000 C   0  0  0  0  0  0  0  0  0  0  0  0
  1  2  1  0
  2  3  1  0
  3  4  2  0
  4  5  1  0
  5  6  2  0
  7  6  1  1
  7  8  1  0
  8  9  1  0
  9 10  1  0
 10 11  1  0
 11 12  1  0
 12 13  1  0
 13 14  1  0
 14 15  1  6
 15 16  2  0
 16 17  1  0
 17 18  2  0
 18 19  1  0
 19 20  1  0
 20 21  1  0
 21 22  1  0
 22 23  2  0
  6 24  1  0
 24 25  2  0
 25 26  1  0
 26 27  1  0
 25  3  1  0
 11  7  1  0
 23 15  1  0
 14 10  1  0
 22 18  1  0
M  END
>  <identifier>  (365) 
CNP0140264.2

>  <canonical_smiles>  (365) 
COC1=CC=C([C@H]2OCC3C2CO[C@H]3C2=CC=C3OCOC3=C2)C=C1OC

>  <standard_inchi>  (365) 
InChI=1S/C21H22O6/c1-22-16-5-3-12(7-18(16)23-2)20-14-9-25-21(15(14)10-24-20)13-4-6-17-19(8-13)27-11-26-17/h3-8,14-15,20-21H,9-11H2,1-2H3/t14?,15?,20-,21+/m1/s1

>  <standard_inchi_key>  (365) 
AWOGQCSIVCQXBT-WOYVVOKSSA-N

>  <name>  (365) 
nan

>  <iupac_name>  (365) 
5-[(3~{R},6~{S})-6-(3,4-dimethoxyphenyl)-1,3,3~{a},4,6,6~{a}-hexahydrofuro[3,4-c]furan-3-yl]-1,3-benzodioxole

>  <annotation_level>  (365) 
5

>  <total_atom_count>  (365) 
49

>  <heavy_atom_count>  (365) 
27

>  <molecular_weight>  (365) 
370.4

>  <exact_molecular_weight>  (365) 
370.14164

>  <molecular_formula>  (365) 
C21H22O6

>  <alogp>  (365) 
3.51

>  <topological_polar_surface_area>  (365) 
55.38

>  <rotatable_bond_count>  (365) 
4

>  <hydrogen_bond_acceptors>  (365) 
6

>  <hydrogen_bond_donors>  (365) 
0

>  <hydrogen_bond_acceptors_lipinski>  (365) 
6

>  <hydrogen_bond_donors_lipinski>  (365) 
0

>  <lipinski_rule_of_five_violations>  (365) 
0

>  <aromatic_rings_count>  (365) 
2

>  <qed_drug_likeliness>  (365) 
0.82

>  <formal_charge>  (365) 
0

>  <fractioncsp3>  (365) 
0.43

>  <number_of_minimal_rings>  (365) 
5

>  <van_der_walls_volume>  (365) 
324.00

>  <contains_sugar>  (365) 
False

>  <contains_ring_sugars>  (365) 
False

>  <contains_linear_sugars>  (365) 
False

>  <murcko_framework>  (365) 
O1c2ccc(cc2OC1)C3OCC4C(OCC34)c5ccccc5

>  <np_likeness>  (365) 
0.75

>  <chemical_class>  (365) 
Furanoid lignans

>  <chemical_sub_class>  (365) 
Furan lignans

>  <chemical_super_class>  (365) 
Lignans, neolignans and related compounds

>  <direct_parent_classification>  (365) 
Furan lignans

>  <np_classifier_pathway>  (365) 
Shikimates and Phenylpropanoids

>  <np_classifier_superclass>  (365) 
Lignans

>  <np_classifier_class>  (365) 
Furofuranoid lignans

>  <np_classifier_is_glycoside>  (365) 
False

>  <organisms>  (365) 
Stauranthus perforatus

>  <collections>  (365) 
BIOFACQUIM|Latin America dataset

>  <dois>  (365) 
10.1016/j.phytochem.2004.12.028

>  <synonyms>  (365) 
Fargesin

>  <cas>  (365) 
nan

$$$$

     RDKit          2D

 16 15  0  0  0  0  0  0  0  0999 V2000
    9.0895    0.4574    0.0000 C   0  0  0  0  0  0  0  0  0  0  0  0
    7.7973   -0.3043    0.0000 C   0  0  0  0  0  0  0  0  0  0  0  0
    6.4915    0.4339    0.0000 C   0  0  0  0  0  0  0  0  0  0  0  0
    5.1993   -0.3279    0.0000 C   0  0  0  0  0  0  0  0  0  0  0  0
    3.8936    0.4103    0.0000 C   0  0  0  0  0  0  0  0  0  0  0  0
    2.6014   -0.3514    0.0000 C   0  0  0  0  0  0  0  0  0  0  0  0
    1.2956    0.3868    0.0000 C   0  0  0  0  0  0  0  0  0  0  0  0
    0.0034   -0.3750    0.0000 C   0  0  0  0  0  0  0  0  0  0  0  0
   -1.3024    0.3632    0.0000 C   0  0  0  0  0  0  0  0  0  0  0  0
   -2.5946   -0.3985    0.0000 C   0  0  0  0  0  0  0  0  0  0  0  0
   -2.5810   -1.8985    0.0000 O   0  0  0  0  0  0  0  0  0  0  0  0
   -3.9004    0.3396    0.0000 N   0  0  0  0  0  0  0  0  0  0  0  0
   -5.1925   -0.4221    0.0000 C   0  0  0  0  0  0  0  0  0  0  0  0
   -6.4983    0.3161    0.0000 C   0  0  0  0  0  0  0  0  0  0  0  0
   -7.7905   -0.4457    0.0000 C   0  0  0  0  0  0  0  0  0  0  0  0
   -6.5119    1.8160    0.0000 C   0  0  0  0  0  0  0  0  0  0  0  0
  1  2  1  0
  2  3  1  0
  3  4  1  0
  4  5  1  0
  5  6  1  0
  6  7  2  3
  7  8  1  0
  8  9  2  3
  9 10  1  0
 10 11  2  0
 10 12  1  0
 12 13  1  0
 13 14  1  0
 14 15  1  0
 14 16  1  0
M  END
>  <identifier>  (366) 
CNP0147800.0

>  <canonical_smiles>  (366) 
CCCCCC=CC=CC(=O)NCC(C)C

>  <standard_inchi>  (366) 
InChI=1S/C14H25NO/c1-4-5-6-7-8-9-10-11-14(16)15-12-13(2)3/h8-11,13H,4-7,12H2,1-3H3,(H,15,16)

>  <standard_inchi_key>  (366) 
MAGQQZHFHJDIRE-UHFFFAOYSA-N

>  <name>  (366) 
n-isobutyl-2,4-decadienamide

>  <iupac_name>  (366) 
~{N}-isobutyldeca-2,4-dienamide

>  <annotation_level>  (366) 
5

>  <total_atom_count>  (366) 
41

>  <heavy_atom_count>  (366) 
16

>  <molecular_weight>  (366) 
223.36

>  <exact_molecular_weight>  (366) 
223.19361

>  <molecular_formula>  (366) 
C14H25NO

>  <alogp>  (366) 
3.45

>  <topological_polar_surface_area>  (366) 
29.10

>  <rotatable_bond_count>  (366) 
8

>  <hydrogen_bond_acceptors>  (366) 
1

>  <hydrogen_bond_donors>  (366) 
1

>  <hydrogen_bond_acceptors_lipinski>  (366) 
1

>  <hydrogen_bond_donors_lipinski>  (366) 
1

>  <lipinski_rule_of_five_violations>  (366) 
0

>  <aromatic_rings_count>  (366) 
0

>  <qed_drug_likeliness>  (366) 
0.38

>  <formal_charge>  (366) 
0

>  <fractioncsp3>  (366) 
0.64

>  <number_of_minimal_rings>  (366) 
0

>  <van_der_walls_volume>  (366) 
247.79

>  <contains_sugar>  (366) 
False

>  <contains_ring_sugars>  (366) 
False

>  <contains_linear_sugars>  (366) 
False

>  <murcko_framework>  (366) 
nan

>  <np_likeness>  (366) 
1.06

>  <chemical_class>  (366) 
Fatty Acyls

>  <chemical_sub_class>  (366) 
Fatty amides

>  <chemical_super_class>  (366) 
Lipids and lipid-like molecules

>  <direct_parent_classification>  (366) 
N-acyl amines

>  <np_classifier_pathway>  (366) 
Fatty acids

>  <np_classifier_superclass>  (366) 
Fatty amides

>  <np_classifier_class>  (366) 
N-acyl amines

>  <np_classifier_is_glycoside>  (366) 
False

>  <organisms>  (366) 
Abies webbiana|Acanthosyris paulo-alvinii|Achillea falcata|Achillea millefolium|Aconitum episcopale|Agaricus xanthodermus|Aglaia perviridis|Alstonia vitiensis|Anoplophora chinensis|Ardisia arborescens|Ardisia japonica|Aromia moschata|Artemisia dracunculus|Bellardia viscosa|Betula alnoides|Brickellia longifolia|Bupleurum rigidum|Cacia concinna|Calliandra eriophylla|Candida albicaus|Carpesium longifolium|Castilleja sulphurea|Cochlearia officinalis|Coelogyne nitida|Corydalis thalictrifolia|Corymbia scabrida|Crocus corsicus|Dichotomanthes tristaniicarpa|Didymosphaeria enalia|Dinosperma erythrococca|Dioscorea sativa|Dracontium loretense|Dryobalanops camphora|Dryopteris arguta|Eucalyptus hybrid|Euphorbia wangii|Forsythia japonica|Frullania brasiliensis|Garcinia oligantha|Gyalolechia fulgida|Gymnosporia trigyna|Hippocrepis emerus|Homalium laurifolium|Huperzia miyoshiana|Iris spuria|Kallichroma tethys|Kopsia jasminiflora|Kopsia lapidilecta|Leifsonia aquatica|Libanotis transcaucasica|Lindera aggregata|Lophocolea bidentata|Matricaria pubescens|Matsumurella chinensis|Monascus rubropunctatus|Mycoplasma mycoides|Nymphaea caerulea|Odontocline hollickii|Oocystis polymorpha|Pagrus major|Palisota barteri|Parmelia vittata|Penicillium puberulum|Penicillium tardum|Phoebe grandis|Photorhabdus luminescens|Phytolacca thyrsiflora|Pinus aristata|Pinus hartwegii|Piper boehmeriaefolium|Piper kadsura|Piper longum|Piper nigrum|Piper novae-hollandiae|Piper retrofractum|Piper sarmentosum|Plenckia populnea|Pocillopora damicornis|Podocarpus minor|Pothomorphe peltata|Protaetia cuprea|Pseudobrickellia brasiliensis|Pseudomonas stutzeri|Remusatia vivipara|Rhododendron latoucheae|Rubus pileatus|Rubus trifidus|Scabiosa rotata|Schefflera venulosa|Silene banksia|Stauranthus perforatus|Streptomyces amakusaensis|Tephrosia semiglabra|Umbilicaria hypococcinea|Venus mercenaria|Verbesina virginica|Zanthoxylum acutifolium|Zanthoxylum gilletii|Zanthoxylum usambarense

>  <collections>  (366) 
ANPDB|AnalytiCon Discovery NPs|Australian natural products|BIOFACQUIM|CMAUP (cCollective molecular activities of useful plants)|ChEBI NPs|ChemSpider NPs|ETM (Ethiopian Traditional Medicine) DB|FooDB|GNPS (Global Natural Products Social Molecular Networking)|Latin America dataset|NANPDB (Natural Products from Northern African Sources)|NPASS|NPCARE|NuBBEDB|SANCDB|Super Natural II|TCMDB-Taiwan (Traditional Chinese Medicine database)|TCMID (Traditional Chinese Medicine Integrated Database)|UNPD (Universal Natural Products Database)|VietHerb|ZINC NP

>  <dois>  (366) 
10.1002/ptr.849|10.1007/bf00987525|10.1016/0031-9422(92)83738-K|10.1016/S0031-9422(00)82632-1|10.1016/j.phytochem.2004.12.028|10.1016/j.sajb.2019.06.015|10.1016/s0031-9422(00)97985-8|10.1021/np9705569|10.1055/s-2006-960985|10.1071/ch9691531

>  <synonyms>  (366) 
N-(2-methylpropyl)deca-2|4-dienamide|109-26-2|N-(2-Methylpropyl)-2|4-Decadienamide|2|4-Decadienamide| N-(2-methylpropyl)-|trans-Pellitorin; trans-Pellitorine|N-Isobutyldecadienamid|DTXSID90864855|isobutyl (E|E)-2|4-decadienamide|Pellitorine|(2E|4E)-Decadienoic isobutylamide|(2E|4E)-2|4-decadien-isobutylamide|N-isobutyldeca-2|4-dienamide

>  <cas>  (366) 
109-26-2

$$$$

     RDKit          2D

 16 18  0  0  0  0  0  0  0  0999 V2000
   -1.5512    3.2487    0.0000 C   0  0  0  0  0  0  0  0  0  0  0  0
   -0.6269    2.0673    0.0000 C   0  0  0  0  0  0  0  0  0  0  0  0
    0.7994    2.5319    0.0000 C   0  0  0  0  0  0  0  0  0  0  0  0
    2.1906    1.9710    0.0000 C   0  0  0  0  0  0  0  0  0  0  0  0
    2.8957    0.6471    0.0000 C   0  0  0  0  0  0  0  0  0  0  0  0
    4.0112   -0.3558    0.0000 O   0  0  0  0  0  0  0  0  0  0  0  0
    2.5849   -0.8203    0.0000 C   0  0  0  0  0  0  0  0  0  0  0  0
    3.2901   -2.1443    0.0000 C   0  0  0  0  0  0  0  0  0  0  0  0
    1.4036   -1.7447    0.0000 C   0  0  0  0  0  0  0  0  0  0  0  0
   -0.0955   -1.6935    0.0000 C   0  0  0  0  0  0  0  0  0  0  0  0
   -1.2110   -0.6906    0.0000 C   0  0  0  0  0  0  0  0  0  0  0  0
   -1.4208    0.7947    0.0000 C   0  0  0  0  0  0  0  0  0  0  0  0
   -2.9061    0.5848    0.0000 C   0  0  0  0  0  0  0  0  0  0  0  0
   -2.6962   -0.9004    0.0000 C   0  0  0  0  0  0  0  0  0  0  0  0
   -2.4864   -2.3857    0.0000 C   0  0  0  0  0  0  0  0  0  0  0  0
   -4.1815   -1.1103    0.0000 C   0  0  0  0  0  0  0  0  0  0  0  0
  1  2  2  0
  2  3  1  0
  3  4  1  0
  5  4  1  1
  5  6  1  0
  6  7  1  0
  7  8  1  1
  7  9  1  0
  9 10  1  0
 11 10  1  1
 11 12  1  0
 12 13  1  6
 13 14  1  0
 14 15  1  0
 14 16  1  0
 12  2  1  0
  7  5  1  0
 14 11  1  0
M  END
>  <identifier>  (367) 
CNP0274815.1

>  <canonical_smiles>  (367) 
C=C1CC[C@H]2O[C@]2(C)CC[C@@H]2[C@@H]1CC2(C)C

>  <standard_inchi>  (367) 
InChI=1S/C15H24O/c1-10-5-6-13-15(4,16-13)8-7-12-11(10)9-14(12,2)3/h11-13H,1,5-9H2,2-4H3/t11-,12-,13-,15-/m1/s1

>  <standard_inchi_key>  (367) 
NVEQFIOZRFFVFW-RGCMKSIDSA-N

>  <name>  (367) 
Caryophyllene oxide

>  <iupac_name>  (367) 
(1~{R},4~{R},6~{R},10~{S})-4,12,12-trimethyl-9-methylene-5-oxatricyclo[8.2.0.0^{4,6}]dodecane

>  <annotation_level>  (367) 
5

>  <total_atom_count>  (367) 
40

>  <heavy_atom_count>  (367) 
16

>  <molecular_weight>  (367) 
220.36

>  <exact_molecular_weight>  (367) 
220.18272

>  <molecular_formula>  (367) 
C15H24O

>  <alogp>  (367) 
3.94

>  <topological_polar_surface_area>  (367) 
12.53

>  <rotatable_bond_count>  (367) 
0

>  <hydrogen_bond_acceptors>  (367) 
1

>  <hydrogen_bond_donors>  (367) 
0

>  <hydrogen_bond_acceptors_lipinski>  (367) 
1

>  <hydrogen_bond_donors_lipinski>  (367) 
0

>  <lipinski_rule_of_five_violations>  (367) 
0

>  <aromatic_rings_count>  (367) 
0

>  <qed_drug_likeliness>  (367) 
0.44

>  <formal_charge>  (367) 
0

>  <fractioncsp3>  (367) 
0.87

>  <number_of_minimal_rings>  (367) 
3

>  <van_der_walls_volume>  (367) 
231.74

>  <contains_sugar>  (367) 
False

>  <contains_ring_sugars>  (367) 
False

>  <contains_linear_sugars>  (367) 
False

>  <murcko_framework>  (367) 
O1C2CCCC3CCC3CCC12

>  <np_likeness>  (367) 
3.68

>  <chemical_class>  (367) 
Prenol lipids

>  <chemical_sub_class>  (367) 
Sesquiterpenoids

>  <chemical_super_class>  (367) 
Lipids and lipid-like molecules

>  <direct_parent_classification>  (367) 
Sesquiterpenoids

>  <np_classifier_pathway>  (367) 
Terpenoids

>  <np_classifier_superclass>  (367) 
Sesquiterpenoids

>  <np_classifier_class>  (367) 
Caryophyllane sesquiterpenoids

>  <np_classifier_is_glycoside>  (367) 
False

>  <organisms>  (367) 
Ables balsamea|Acer spicatum|Aconitum sajanense|Acorus calamus|Acorus calanus L.|Acronychia laurifolia|Actinobole uliginosum|Actinoplanes ianthinogenes|Agastache rugosa|Agave deserti|Aglaia foveolata|Aglaia pyramidata|Agrimonia pilosa|Akebia quinata|Akebia trifoliata|Alpinia flabellata|Alpinia oxyphylla|Alternaria bataticola|Andinobates bombetes|Anemone coronaria|Angelica japonica|Annona reticulata|Anthemis aciphylla BOISS.var.discoidea BOISS|Anthyllis hermanniae|Aquilaria agallochum|Aquilaria sinensis|Arnebia euchroma|Arnebia guttata|Artabotrys stenopetalus|Artabotrys uncinatus|Artemisia annua|Artemisia annua L.|Artemisia annua L.cultivar Jwarharti|Artemisia apiacea|Artemisia argyi|Artemisia capillaris|Artemisia jacutica|Artemisia montana|Artemisia princeps|Artemisia scoparia|Artemisia vulgaris|Asclepias subulata|Asplenium ruprechtii|Astragalus eximius|Astroloma humifusum|Atractylodes chinensis|Atractylodes lancea|Atractylodes macrocephala|Avrainvillea rawsonii|Baccharis dracunculifolia|Baccharis truncata|Baeckea frutescens L.|Bassia longifolia|Benincasa hispida|Bersama abyssinica|Betula pubescens|Bidens graveolens|Bipolaris sacchari|Boehmeria japonica|Buphthalmum salicifolium|Bupleurum chinense|Bupleurum falcatum|Bupleurum scorzonerifolium|Caesalpinia decapetala|Caesalpinia pulcherrima|Callyspongia spinosissima|Capillipedium parviflorum|Cassia jahnii|Cedrela odorata|Celastrus monospermus|Centaurea benedicta|Cephalaria procera|Chloranthus fortunei|Chrysanthemum indicum|Chrysanthemum x morifolium|Chuquiraga erinacea|Cinnamomum subavenium|Cinnamomum subavenium MIQ.|Cissus adnata|Cistus albidus|Citrus aurantium|Citrus maxima|Citrus paradisi|Citrus reticulata|Citrus unshiu|Clerodendrum brachyanthum|Conium maculatum|Copaifera guianensis|Copaifera multijuga|Cupania cinerea|Cuphea hyssopifolia|Curcuma aeruginosa|Curcuma amanda Roxb|Curcuma kwangsiensis|Curcuma longa|Curcuma phaeocaulis|Curcuma wenyujin|Curcuma xanthorrhiza|Curcuma zedoaria|Cynanchum sibiricum|Cynanchum stauntoni|Cyperus rotundus|Cyphelium chrysocephalum|Cystoseira fimbriata|Cytisus ciliatus|Dacryodes normandii|Damnacanthus major|Daucus carota|Diospyros maritima|Diospyros virginiana|Dolomiaea souliei|Domohinea perrieri|Dracaena mannii|Dysidea villosa|Echinoclathria subhispida|Elsholtzia ciliata|Epigaea asiatica|Eria rigida|Eucalyptus|Eugenia caryophyllata|Eugenia exsucca|Euphorbia palustris|Euphorbia pithyusa|Euphorbia pulcherrima|Eutrochium purpureum|Farfugium japonicum|Flemingia paniculata|Fouquieria diguetii|Fritillaria hupehensis|Frullania probosciphora|Fusarium sambucinum|Galeocerdo arcticus|Garcinia hermonii|Glehnia littoralis|Gynoxys verrucosa|Helichrysum setosum|Helipterum propinquum|Herba artemisiae scopariae|Holarrhena floribunda|Holothuria squamifera|Hortonia floribunda|Hosta sieboldiana|Houttuynia cordata|Humulus lupulus|Hypericum perforatum|Hypogymnia vittata|Illicium verum|Inula helenium|Inula salsoloides|Ipomoea obscura|Iris xiphium|Isodon japonica var. glaucocalyx|Jacobaea cannabifolia|Lactarius subpiperatus|Lactifluus subvellereus|Laggera pterodonta|Lasthenia glabrata|Lathyrus latifolius|Lecanora rupicola|Leonurus heterophyllus|Leptospermum scoparium|Limnodynastes interioris|Liparis kumokiri|Lippia javanica|Lippia ukambensis|Lithocolletis coryli|Lithospermum erythrorhizon|Litsea cubeba|Lobelia chinensis|Lobophytum denticulatum|Lonicera japonica|Lophostemon confertus|Macrococculus pomiferus|Magnolia obovata|Magnolia officinalis|Mamestra brassicae|Mannia fragrans|Melaleuca leucadendra|Melaleuca leucadendra L.|Melia azedarach|Melia azedarach var. toosendan|Mentha arvensis|Mentha arvensis L.|Mentha canadensis|Mentha piperita|Mesua beccariana|Millettia pinnata|Morinda coreia|Mosla chinensis|Mulguraea tridens|Murraya exotica|Murraya paniculata|Myrtus communis|Nephthea armata|Nerium oleander|Notechis scutatus|Ononis viscosa|Parectatosoma mocquerysi|Parmelia barbata|Parmelia zollingeri|Parthenium bipinnatifidum|Passiflora morifolia|Pedicularis rex|Pellicularia sasakii|Perilla frutescens|Phyllobates bicolor|Pinus edulis|Pinus halepensis|Piper attenuatum|Piper cubeba|Piper nigrum|Piper philippinum|Piptocarpha chontalensis|Piscidia mollis|Pittosporum undulatum|Plakortis simplex|Plectranthus marrubioides|Pogostemon cablin|Polygonum minus|Poncirus trifoliata|Posidonia oceanica|Prangos tschimganica|Prostanthera melissifolia|Pseudocyphellaria coronata|Pseudomonas savastanoi|Pseudoplexaura wagenaari|Pterocarpus erinaceus|Puccinia lagenophorae|Pyrus bourgaeana|Riccia fluitans|Rosmarinus officinalis|Rubus sanctus|Salvia broussonetii|Sandoricum koetjape|Santolina corsica Jordan et Fourr|Saturnia pavonia|Saussurea lappa|Schizonepeta tenuifolia|Schizonepeta tenuisfolia|Schrebera swietenoides|Scutellaria barbata|Sedum sarmentosum|Senecio chionophilus|Senecio gilliesi|Senna alexandrina|Serratula wolfi|Sigillina signifera|Sinocrassula indica|Siphonaria australis|Solanum linearifolium|Solanum spirale|Sophora leachiana|Sorbus torminalis|Stauntonia hexaphylla|Stauranthus perforatus|Stephanitis rhododendri|Streptomyces luteosporeus|Strychnos triplinervia|Suaeda maritima|Synoicum macroglossum|Syzygium aromaticum|Talipariti tiliaceum|Tamarix ramosissima|Tarchonanthus camphoratus|Tephrosia bidwilli|Tersonia brevipes|Thelephora aurantiotincta|Thielavia terricola|Thioalkalivibrio versutus|Thymus maroccanus|Thymus quinquecostatus|Thymus vulgaris|Trifolium echinatum|Tripetalum cymosum|Triunia erythrocarpa|Urospermum picroides|Usnea magellanica|Valeriana jatamansi|Vernonia lilacina|Vincetoxicum glaucescens|Vincetoxicum stauntonii|Vitex negundo|Xanthoria parietina|Xestospongia bergquistia|Zanthoxylum bungeanum|Zanthoxylum decaryi|Zanthoxylum piperitum|Zanthoxylum schinifolium|Zanthoxylum simulans|Zingiber cassumunar Roxb.|Zingiber officinale|Zingiber zerumbet|Zingiber zerumbet Smith|Ziziphus jujuba

>  <collections>  (367) 
ANPDB|Australian natural products|BIOFACQUIM|CMAUP (cCollective molecular activities of useful plants)|ChEBI NPs|EMNPD|KNApSaCK|Latin America dataset|NANPDB (Natural Products from Northern African Sources)|NPACT|NPASS|NPEdia|NuBBEDB|Phyto4Health|SANCDB|Super Natural II|TCMDB-Taiwan (Traditional Chinese Medicine database)|TIPdb (database of Taiwan indigenous plants)|VietHerb|ZINC NP

>  <dois>  (367) 
10.1002/(sici)1099-1026(200001/02)15:1<17::aid-ffj859>3.0.co;2-d|10.1002/ffj.1026|10.1007/s10600-012-0333-y|10.1016/0031-9422(88)83027-9|10.1016/j.phytochem.2004.12.028|10.1016/j.phytochem.2019.112249|10.1016/s0031-9422(00)90471-0|10.1021/acs.jnatprod.5b01127|10.1021/np100415m|10.1111/j.1365-2621.1985.tb01819.x|10.1248/cpb.53.428|10.1590/S0103-50532000000600012

>  <synonyms>  (367) 
(-)-Caryophyllene oxide|1139-30-6|beta-Caryophyllene oxide|(-)-Epoxycaryophyllene|trans-caryophyllene oxide|UNII-S2XU9K448U|(-)-Epoxydihydrocaryophyllene|S2XU9K448U|Caryophylene oxide|HSDB 5466|EINECS 214-519-7|MFCD00134216|(-)-BETA-CARYOPHYLLENE EPOXIDE|CARYOPHYLLENE| EPOXIDE|CHEMBL508894|DTXSID4051586|FEMA NO. 4085|CHEBI:67818|4|11|11-Trimethyl-8-methylene-5-oxatricyclo(8.2.0.0(4|6))dodecane|(1R|4R|6R|10S)-4|12|12-trimethyl-9-methylidene-5-oxatricyclo8.2.0.04|6dodecane|4|12|12-Trimethyl-9-methylene-5-oxatricyclo(8.2.0.04|6)dodecane| (1R|4R|6R|10S)-|5-Oxatricyclo(8.2.0.0(4|6))dodecane| 4|12|12-trimethyl-9-methylene-| (1R|4R|6R|10S)-|Caryophyllene Oxide 1000 microg\/mL in Isopropanol|epoxide|(-)-.beta.-Caryophyllene epoxide|4-12|12-TRIMETHYL-9-METHYLENE-5-OXATRICYLO (8.2.0.04|6) DODECANE|(1R|4R|6R|10S)-4|12|12-TRIMETHYL-9-METHYLIDENE-5-OXATRICYCLO8.2.0.0?|?DODECANE|5-OXATRICYCLO(8.2.0.04|6)DODECANE| 4|12|12-TRIMETHYL-9-METHYLENE-| (1R-(1R*|4R*|6R*|10S*))-|ambar crystal|bcp oxide|(1R-(1R*|4R*|6R*|10S*))-4|12|12-Trimethyl-9-methylene-5-oxatricyclo(8.2.0.04|6)dodecane|?-caryophyllene oxide|b-Caryophyllene Epoxide|trimethyl(methylene)?|Caryophyllene Oxide 90001|SCHEMBL127077|DTXCID8030138|NVEQFIOZRFFVFW-RGCMKSIDSA-N|4|12|12-trimethyl-9-methylene-|4beta|5alpha-EPOXYCARYOPHYLLENE|HY-N3544|Tox21_303807|BDBM50241720|CARYOPHYLLENE 4beta|5alpha-OXIDE|s3983|AKOS030241571|CCG-208462|(1R|4R|6R|10S)-9-Methylene-4|12|12-trimethyl-5-oxatricyclo8.2.0.04|6dodecane|NCGC00357089-01|AS-58060|BETA-CARYOPHYLLENE EPOXIDE| (-)-|.BETA.-CARYOPHYLLENE OXIDE FHFI|CAS-1139-30-6|4.BETA.|5.ALPHA.-EPOXYCARYOPHYLLENE|CS-0023810|CARYOPHYLLENE 4.BETA.|5.ALPHA.-OXIDE|(-)-BETA-CARYOPHYLLENE EPOXIDE HSDB|C16908|E80731|SR-05000002236|W-108611|(-)-Caryophyllene oxide| analytical reference material|(1R|4R|5R|9S)-4|5-epoxycaryophyllan-8(13)-ene|Q27136294|inverted exclamation markY99.0% (sum of enantiomers| GC)|(-)-Caryophyllene oxide| >=99.0% (sum of enantiomers| GC)|(1R|4R|6R|10S)- 5-Oxatricyclo8.2.0.0(4|6)-dodecane|4|12|12-trimethyl-9-methylene-5-oxatricyclo8.2.0.0~4|6~dodecane|(-)-5-Oxatricyclo8.2.0.0(4|6)dodecane|4|12|12-trimethyl-9-methylene-|(1R|4R|6R|10S)- 4|12|12-trimethyl-9-methylene-5-oxatricyclo8.2.0.dodecane (caryophyllene oxide) 5-Oxatricyclo(8.2.0.0(4|6))dodecane|1R-(1R*|4R*|6R*|10S*)- (-)-Epoxydihydrocaryophyllene (-)-<<beta>>-Caryophyllene epoxide (-)-<<beta>>-Caryophyllene oxide 4|11|11-Trimethyl-8-methylene-5-oxatricyclo(8.2.0.0(4|6))dodecane|1R-(1R*|4R*|6R*|10S*)- Caryophylene oxide Caryophyllene epoxide Caryophyllene oxyde Epoxycaryophyllene 1R-(1R*|4R*|6R*|10S*)-4|12|12-trimethyl-9-methylene-5-oxatricyclo8.2.0.04|6dodecane <<beta>>-Caryophyllene epoxide <<beta>>-Caryophyllene oxide|4 5-epoxi-\u0152\u2264-caryophyllene|\u221a\u00e9\u00ac\u2264-Caryophyllene epoxide

>  <cas>  (367) 
1139-30-6

$$$$

     RDKit          2D

 83 87  0  0  0  0  0  0  0  0999 V2000
    2.8216  -15.8730    0.0000 C   0  0  0  0  0  0  0  0  0  0  0  0
    2.3959  -14.4347    0.0000 C   0  0  0  0  0  0  0  0  0  0  0  0
    3.4286  -13.3468    0.0000 C   0  0  0  0  0  0  0  0  0  0  0  0
    3.0028  -11.9085    0.0000 C   0  0  0  0  0  0  0  0  0  0  0  0
    4.0356  -10.8207    0.0000 C   0  0  0  0  0  0  0  0  0  0  0  0
    3.6098   -9.3824    0.0000 C   0  0  0  0  0  0  0  0  0  0  0  0
    4.6425   -8.2945    0.0000 C   0  0  0  0  0  0  0  0  0  0  0  0
    4.2168   -6.8562    0.0000 C   0  0  0  0  0  0  0  0  0  0  0  0
    5.2495   -5.7683    0.0000 C   0  0  0  0  0  0  0  0  0  0  0  0
    4.8237   -4.3300    0.0000 C   0  0  0  0  0  0  0  0  0  0  0  0
    5.8564   -3.2421    0.0000 C   0  0  0  0  0  0  0  0  0  0  0  0
    5.4307   -1.8038    0.0000 C   0  0  0  0  0  0  0  0  0  0  0  0
    3.9722   -1.4534    0.0000 O   0  0  0  0  0  0  0  0  0  0  0  0
    6.4634   -0.7159    0.0000 O   0  0  0  0  0  0  0  0  0  0  0  0
    6.0376    0.7224    0.0000 C   0  0  0  0  0  0  0  0  0  0  0  0
    4.5791    1.0728    0.0000 C   0  0  0  0  0  0  0  0  0  0  0  0
    3.5464   -0.0151    0.0000 O   0  0  0  0  0  0  0  0  0  0  0  0
    2.0879    0.3354    0.0000 C   0  0  0  0  0  0  0  0  0  0  0  0
    1.6622    1.7737    0.0000 C   0  0  0  0  0  0  0  0  0  0  0  0
    2.6949    2.8615    0.0000 O   0  0  0  0  0  0  0  0  0  0  0  0
    0.2037    2.1241    0.0000 C   0  0  0  0  0  0  0  0  0  0  0  0
   -0.2221    3.5624    0.0000 O   0  0  0  0  0  0  0  0  0  0  0  0
   -0.8291    1.0362    0.0000 C   0  0  0  0  0  0  0  0  0  0  0  0
   -2.2875    1.3866    0.0000 O   0  0  0  0  0  0  0  0  0  0  0  0
   -3.3203    0.2988    0.0000 C   0  0  0  0  0  0  0  0  0  0  0  0
   -4.7788    0.6492    0.0000 C   0  0  0  0  0  0  0  0  0  0  0  0
   -5.2045    2.0875    0.0000 O   0  0  0  0  0  0  0  0  0  0  0  0
   -6.6630    2.4379    0.0000 C   0  0  0  0  0  0  0  0  0  0  0  0
   -7.0888    3.8762    0.0000 C   0  0  0  0  0  0  0  0  0  0  0  0
   -8.5473    4.2267    0.0000 C   0  0  0  0  0  0  0  0  0  0  0  0
   -8.9730    5.6650    0.0000 C   0  0  0  0  0  0  0  0  0  0  0  0
  -10.4315    6.0154    0.0000 C   0  0  0  0  0  0  0  0  0  0  0  0
  -10.8573    7.4537    0.0000 C   0  0  0  0  0  0  0  0  0  0  0  0
   -7.6957    1.3501    0.0000 C   0  0  0  0  0  0  0  0  0  0  0  0
   -9.1542    1.7005    0.0000 C   0  0  0  0  0  0  0  0  0  0  0  0
  -10.1870    0.6126    0.0000 C   0  0  0  0  0  0  0  0  0  0  0  0
  -11.6455    0.9630    0.0000 C   0  0  0  0  0  0  0  0  0  0  0  0
  -12.6782   -0.1248    0.0000 C   0  0  0  0  0  0  0  0  0  0  0  0
  -14.1367    0.2256    0.0000 C   0  0  0  0  0  0  0  0  0  0  0  0
  -15.1694   -0.8623    0.0000 C   0  0  0  0  0  0  0  0  0  0  0  0
  -16.6279   -0.5118    0.0000 C   0  0  0  0  0  0  0  0  0  0  0  0
  -17.6606   -1.5997    0.0000 C   0  0  0  0  0  0  0  0  0  0  0  0
  -19.1191   -1.2493    0.0000 C   0  0  0  0  0  0  0  0  0  0  0  0
  -19.5449    0.1890    0.0000 O   0  0  0  0  0  0  0  0  0  0  0  0
  -20.1518   -2.3372    0.0000 O   0  0  0  0  0  0  0  0  0  0  0  0
  -21.6103   -1.9867    0.0000 C   0  0  0  0  0  0  0  0  0  0  0  0
   -5.8115   -0.4387    0.0000 O   0  0  0  0  0  0  0  0  0  0  0  0
   -5.3857   -1.8770    0.0000 C   0  0  0  0  0  0  0  0  0  0  0  0
   -6.4185   -2.9649    0.0000 C   0  0  0  0  0  0  0  0  0  0  0  0
   -3.9272   -2.2274    0.0000 C   0  0  0  0  0  0  0  0  0  0  0  0
   -3.5015   -3.6657    0.0000 O   0  0  0  0  0  0  0  0  0  0  0  0
   -2.8945   -1.1395    0.0000 C   0  0  0  0  0  0  0  0  0  0  0  0
   -1.4360   -1.4900    0.0000 O   0  0  0  0  0  0  0  0  0  0  0  0
   -0.4033   -0.4021    0.0000 O   0  0  0  0  0  0  0  0  0  0  0  0
    1.0552   -0.7525    0.0000 C   0  0  0  0  0  0  0  0  0  0  0  0
    1.4810   -2.1908    0.0000 C   0  0  0  0  0  0  0  0  0  0  0  0
    4.1534    2.5111    0.0000 O   0  0  0  0  0  0  0  0  0  0  0  0
    5.1861    3.5990    0.0000 C   0  0  0  0  0  0  0  0  0  0  0  0
    4.7603    5.0373    0.0000 C   0  0  0  0  0  0  0  0  0  0  0  0
    6.6446    3.2485    0.0000 C   0  0  0  0  0  0  0  0  0  0  0  0
    7.6773    4.3364    0.0000 O   0  0  0  0  0  0  0  0  0  0  0  0
    7.2516    5.7747    0.0000 C   0  0  0  0  0  0  0  0  0  0  0  0
    5.7931    6.1252    0.0000 O   0  0  0  0  0  0  0  0  0  0  0  0
    5.3673    7.5635    0.0000 C   0  0  0  0  0  0  0  0  0  0  0  0
    3.9088    7.9139    0.0000 C   0  0  0  0  0  0  0  0  0  0  0  0
    6.4000    8.6513    0.0000 C   0  0  0  0  0  0  0  0  0  0  0  0
    5.9743   10.0896    0.0000 O   0  0  0  0  0  0  0  0  0  0  0  0
    7.8585    8.3009    0.0000 C   0  0  0  0  0  0  0  0  0  0  0  0
    8.8913    9.3888    0.0000 O   0  0  0  0  0  0  0  0  0  0  0  0
    8.2843    6.8626    0.0000 C   0  0  0  0  0  0  0  0  0  0  0  0
    9.7428    6.5122    0.0000 O   0  0  0  0  0  0  0  0  0  0  0  0
    7.0704    1.8102    0.0000 C   0  0  0  0  0  0  0  0  0  0  0  0
    8.5289    1.4598    0.0000 O   0  0  0  0  0  0  0  0  0  0  0  0
    8.9546    0.0215    0.0000 C   0  0  0  0  0  0  0  0  0  0  0  0
    7.9219   -1.0664    0.0000 O   0  0  0  0  0  0  0  0  0  0  0  0
    8.3477   -2.5047    0.0000 C   0  0  0  0  0  0  0  0  0  0  0  0
    7.3149   -3.5926    0.0000 C   0  0  0  0  0  0  0  0  0  0  0  0
    9.8062   -2.8551    0.0000 C   0  0  0  0  0  0  0  0  0  0  0  0
   10.2319   -4.2934    0.0000 O   0  0  0  0  0  0  0  0  0  0  0  0
   10.8389   -1.7672    0.0000 C   0  0  0  0  0  0  0  0  0  0  0  0
   12.2974   -2.1177    0.0000 O   0  0  0  0  0  0  0  0  0  0  0  0
   10.4131   -0.3289    0.0000 C   0  0  0  0  0  0  0  0  0  0  0  0
   11.4458    0.7590    0.0000 O   0  0  0  0  0  0  0  0  0  0  0  0
  1  2  1  0
  2  3  1  0
  3  4  1  0
  4  5  1  0
  5  6  1  0
  6  7  1  0
  7  8  1  0
  8  9  1  0
  9 10  1  0
 10 11  1  0
 11 12  1  0
 12 13  2  0
 12 14  1  0
 15 14  1  1
 15 16  1  0
 16 17  1  6
 18 17  1  1
 18 19  1  0
 19 20  1  6
 19 21  1  0
 21 22  1  6
 21 23  1  0
 23 24  1  1
 25 24  1  6
 25 26  1  0
 26 27  1  1
 27 28  1  0
 28 29  1  6
 29 30  1  0
 30 31  1  0
 31 32  1  0
 32 33  1  0
 28 34  1  0
 34 35  1  0
 35 36  1  0
 36 37  1  0
 37 38  1  0
 38 39  1  0
 39 40  1  0
 40 41  1  0
 41 42  1  0
 42 43  1  0
 43 44  2  0
 43 45  1  0
 45 46  1  0
 26 47  1  0
 47 48  1  0
 48 49  1  1
 48 50  1  0
 50 51  1  1
 50 52  1  0
 52 53  1  1
 23 54  1  0
 54 55  1  0
 55 56  1  6
 16 57  1  0
 57 58  1  0
 58 59  1  1
 58 60  1  0
 60 61  1  6
 62 61  1  6
 62 63  1  0
 63 64  1  0
 64 65  1  1
 64 66  1  0
 66 67  1  6
 66 68  1  0
 68 69  1  1
 68 70  1  0
 70 71  1  1
 60 72  1  0
 72 73  1  1
 74 73  1  1
 74 75  1  0
 75 76  1  0
 76 77  1  6
 76 78  1  0
 78 79  1  1
 78 80  1  0
 80 81  1  6
 80 82  1  0
 82 83  1  6
 72 15  1  0
 82 74  1  0
 55 18  1  0
 70 62  1  0
 52 25  1  0
M  END
>  <identifier>  (368) 
CNP0201845.1

>  <canonical_smiles>  (368) 
CCCCCCCCCCCC(=O)O[C@H]1[C@H](O[C@@H]2[C@@H](O)[C@@H](O)[C@H](O[C@H]3[C@H](O[C@@H](CCCCC)CCCCCCCCCC(=O)OC)O[C@H](C)[C@H](O)[C@@H]3O)O[C@H]2C)O[C@@H](C)[C@H](O[C@@H]2O[C@@H](C)[C@H](O)[C@@H](O)[C@H]2O)[C@H]1O[C@@H]1O[C@@H](C)[C@H](O)[C@@H](O)[C@H]1O

>  <standard_inchi>  (368) 
InChI=1S/C59H106O24/c1-9-11-13-14-15-16-19-23-27-31-39(61)79-54-53(83-56-48(70)44(66)41(63)33(4)74-56)51(81-55-47(69)43(65)40(62)32(3)73-55)36(7)77-59(54)80-50-35(6)76-57(49(71)46(50)68)82-52-45(67)42(64)34(5)75-58(52)78-37(28-24-12-10-2)29-25-21-18-17-20-22-26-30-38(60)72-8/h32-37,40-59,62-71H,9-31H2,1-8H3/t32-,33-,34+,35-,36-,37-,40-,41-,42-,43+,44+,45-,46-,47+,48+,49+,50-,51-,52+,53+,54+,55-,56-,57-,58-,59-/m0/s1

>  <standard_inchi_key>  (368) 
MHVINGJQHVKKSE-RVBJTDSWSA-N

>  <name>  (368) 
PESCAPROSIDE A

>  <iupac_name>  (368) 
methyl (11~{S})-11-[(2~{R},3~{R},4~{S},5~{R},6~{R})-3-[(2~{S},3~{R},4~{S},5~{R},6~{S})-5-[(2~{S},3~{R},4~{R},5~{S},6~{S})-3-dodecanoyloxy-6-methyl-4,5-bis[[(2~{S},3~{R},4~{R},5~{R},6~{S})-3,4,5-trihydroxy-6-methyl-tetrahydropyran-2-yl]oxy]tetrahydropyran-2-yl]oxy-3,4-dihydroxy-6-methyl-tetrahydropyran-2-yl]oxy-4,5-dihydroxy-6-methyl-tetrahydropyran-2-yl]oxyhexadecanoate

>  <annotation_level>  (368) 
5

>  <total_atom_count>  (368) 
189

>  <heavy_atom_count>  (368) 
83

>  <molecular_weight>  (368) 
1199.47

>  <exact_molecular_weight>  (368) 
1198.7074

>  <molecular_formula>  (368) 
C59H106O24

>  <alogp>  (368) 
3.34

>  <topological_polar_surface_area>  (368) 
347.20

>  <rotatable_bond_count>  (368) 
35

>  <hydrogen_bond_acceptors>  (368) 
24

>  <hydrogen_bond_donors>  (368) 
10

>  <hydrogen_bond_acceptors_lipinski>  (368) 
24

>  <hydrogen_bond_donors_lipinski>  (368) 
10

>  <lipinski_rule_of_five_violations>  (368) 
3

>  <aromatic_rings_count>  (368) 
0

>  <qed_drug_likeliness>  (368) 
0.03

>  <formal_charge>  (368) 
0

>  <fractioncsp3>  (368) 
0.97

>  <number_of_minimal_rings>  (368) 
5

>  <van_der_walls_volume>  (368) 
nan

>  <contains_sugar>  (368) 
True

>  <contains_ring_sugars>  (368) 
True

>  <contains_linear_sugars>  (368) 
False

>  <murcko_framework>  (368) 
O1CCCC(OC2OCC(OC3OCC(OC4OCCCC4)C(OC5OCCCC5)C3)CC2)C1

>  <np_likeness>  (368) 
0.81

>  <chemical_class>  (368) 
Fatty Acyls

>  <chemical_sub_class>  (368) 
Fatty acyl glycosides

>  <chemical_super_class>  (368) 
Lipids and lipid-like molecules

>  <direct_parent_classification>  (368) 
Fatty acyl glycosides of mono- and disaccharides

>  <np_classifier_pathway>  (368) 
Fatty acids

>  <np_classifier_superclass>  (368) 
Fatty acyls

>  <np_classifier_class>  (368) 
Resin glycosides

>  <np_classifier_is_glycoside>  (368) 
True

>  <organisms>  (368) 
Ipomea pes caprae|Ipomoea pes-caprae

>  <collections>  (368) 
BIOFACQUIM|Latin America dataset|NPASS|Super Natural II

>  <dois>  (368) 
10.1021/np0496340

>  <synonyms>  (368) 
CHEMBL510033|Pescaproside A

>  <cas>  (368) 
nan

$$$$

     RDKit          2D

 22 23  0  0  0  0  0  0  0  0999 V2000
   -0.6116    4.6561    0.0000 C   0  0  0  0  0  0  0  0  0  0  0  0
   -0.6136    3.1561    0.0000 C   0  0  0  0  0  0  0  0  0  0  0  0
   -1.6757    2.0969    0.0000 C   0  0  0  0  0  0  0  0  0  0  0  0
   -3.1251    1.7106    0.0000 C   0  0  0  0  0  0  0  0  0  0  0  0
   -3.5153    0.2623    0.0000 C   0  0  0  0  0  0  0  0  0  0  0  0
   -3.1290   -1.1871    0.0000 C   0  0  0  0  0  0  0  0  0  0  0  0
   -4.4291   -1.9354    0.0000 C   0  0  0  0  0  0  0  0  0  0  0  0
   -5.7271   -1.1836    0.0000 O   0  0  0  0  0  0  0  0  0  0  0  0
   -2.0698   -2.2492    0.0000 C   0  0  0  0  0  0  0  0  0  0  0  0
   -0.6214   -2.6394    0.0000 C   0  0  0  0  0  0  0  0  0  0  0  0
    0.9782   -1.9938    0.0000 C   0  0  0  0  0  0  0  0  0  0  0  0
    2.2762   -2.7455    0.0000 C   0  0  0  0  0  0  0  0  0  0  0  0
    3.5762   -1.9973    0.0000 C   0  0  0  0  0  0  0  0  0  0  0  0
    3.5783   -0.4973    0.0000 C   0  0  0  0  0  0  0  0  0  0  0  0
    4.0932    0.9116    0.0000 C   0  0  0  0  0  0  0  0  0  0  0  0
    5.0551   -0.7597    0.0000 O   0  0  0  0  0  0  0  0  0  0  0  0
    2.2802    0.2545    0.0000 C   0  0  0  0  0  0  0  0  0  0  0  0
    1.8940    1.7039    0.0000 C   0  0  0  0  0  0  0  0  0  0  0  0
    0.8347    2.7660    0.0000 C   0  0  0  0  0  0  0  0  0  0  0  0
    0.9802   -0.4938    0.0000 C   0  0  0  0  0  0  0  0  0  0  0  0
   -0.4974   -0.7523    0.0000 C   0  0  0  0  0  0  0  0  0  0  0  0
    0.4691    0.9164    0.0000 C   0  0  0  0  0  0  0  0  0  0  0  0
  1  2  1  0
  2  3  2  0
  3  4  1  0
  4  5  1  0
  5  6  1  0
  6  7  1  0
  7  8  1  0
  6  9  2  3
  9 10  1  0
 11 10  1  1
 11 12  1  0
 12 13  1  0
 13 14  1  0
 14 15  1  6
 14 16  1  0
 14 17  1  0
 17 18  1  6
 18 19  1  0
 17 20  1  0
 20 21  1  0
 20 22  1  0
 19  2  1  0
 20 11  1  0
M  END
>  <identifier>  (369) 
CNP0264780.1

>  <canonical_smiles>  (369) 
C/C1=C\CCC(CO)=CC[C@@H]2CC[C@](C)(O)[C@@H](CC1)C2(C)C

>  <standard_inchi>  (369) 
InChI=1S/C20H34O2/c1-15-6-5-7-16(14-21)9-10-17-12-13-20(4,22)18(11-8-15)19(17,2)3/h6,9,17-18,21-22H,5,7-8,10-14H2,1-4H3/b15-6+,16-9?/t17-,18+,20+/m1/s1

>  <standard_inchi_key>  (369) 
IUPASQALDUKIAM-IVYWMUFRSA-N

>  <name>  (369) 
(1S 3Z 7E 11S 12S)-(+)-verticilla-3 7-dien-12 20-diol

>  <iupac_name>  (369) 
(1~{S},7~{E},11~{S},12~{S})-4-(hydroxymethyl)-8,12,15,15-tetramethyl-bicyclo[9.3.1]pentadeca-3,7-dien-12-ol

>  <annotation_level>  (369) 
5

>  <total_atom_count>  (369) 
56

>  <heavy_atom_count>  (369) 
22

>  <molecular_weight>  (369) 
306.49

>  <exact_molecular_weight>  (369) 
306.25588

>  <molecular_formula>  (369) 
C20H34O2

>  <alogp>  (369) 
4.62

>  <topological_polar_surface_area>  (369) 
40.46

>  <rotatable_bond_count>  (369) 
1

>  <hydrogen_bond_acceptors>  (369) 
2

>  <hydrogen_bond_donors>  (369) 
2

>  <hydrogen_bond_acceptors_lipinski>  (369) 
2

>  <hydrogen_bond_donors_lipinski>  (369) 
2

>  <lipinski_rule_of_five_violations>  (369) 
0

>  <aromatic_rings_count>  (369) 
0

>  <qed_drug_likeliness>  (369) 
0.69

>  <formal_charge>  (369) 
0

>  <fractioncsp3>  (369) 
0.80

>  <number_of_minimal_rings>  (369) 
2

>  <van_der_walls_volume>  (369) 
322.17

>  <contains_sugar>  (369) 
False

>  <contains_ring_sugars>  (369) 
False

>  <contains_linear_sugars>  (369) 
False

>  <murcko_framework>  (369) 
C1=CCCC2CCCC(CC=CCC1)C2

>  <np_likeness>  (369) 
2.78

>  <chemical_class>  (369) 
Prenol lipids

>  <chemical_sub_class>  (369) 
Diterpenoids

>  <chemical_super_class>  (369) 
Lipids and lipid-like molecules

>  <direct_parent_classification>  (369) 
Diterpenoids

>  <np_classifier_pathway>  (369) 
Terpenoids

>  <np_classifier_superclass>  (369) 
Diterpenoids

>  <np_classifier_class>  (369) 
Verticillane diterpenoids

>  <np_classifier_is_glycoside>  (369) 
False

>  <organisms>  (369) 
Artemisia minor|Bursera suntui

>  <collections>  (369) 
BIOFACQUIM|Latin America dataset|NPASS|Super Natural II

>  <dois>  (369) 
10.1021/np050323e

>  <synonyms>  (369) 
(1S 3Z 7E 11S 12S)-(+)-verticilla-3 7-dien-12 20-diol

>  <cas>  (369) 
nan

$$$$

     RDKit          2D

 85 90  0  0  0  0  0  0  0  0999 V2000
   10.0686  -11.5990    0.0000 C   0  0  0  0  0  0  0  0  0  0  0  0
    9.8425  -10.1162    0.0000 C   0  0  0  0  0  0  0  0  0  0  0  0
    8.4453   -9.5706    0.0000 C   0  0  0  0  0  0  0  0  0  0  0  0
    8.2192   -8.0877    0.0000 C   0  0  0  0  0  0  0  0  0  0  0  0
    6.8220   -7.5421    0.0000 C   0  0  0  0  0  0  0  0  0  0  0  0
    6.5959   -6.0592    0.0000 C   0  0  0  0  0  0  0  0  0  0  0  0
    5.1986   -5.5136    0.0000 C   0  0  0  0  0  0  0  0  0  0  0  0
    4.9725   -4.0307    0.0000 C   0  0  0  0  0  0  0  0  0  0  0  0
    3.5753   -3.4851    0.0000 C   0  0  0  0  0  0  0  0  0  0  0  0
    3.3492   -2.0022    0.0000 C   0  0  0  0  0  0  0  0  0  0  0  0
    4.5203   -1.0650    0.0000 O   0  0  0  0  0  0  0  0  0  0  0  0
    1.9519   -1.4566    0.0000 O   0  0  0  0  0  0  0  0  0  0  0  0
    1.7258    0.0263    0.0000 C   0  0  0  0  0  0  0  0  0  0  0  0
    0.3286    0.5719    0.0000 C   0  0  0  0  0  0  0  0  0  0  0  0
   -0.8426   -0.3653    0.0000 O   0  0  0  0  0  0  0  0  0  0  0  0
   -2.2398    0.1803    0.0000 C   0  0  0  0  0  0  0  0  0  0  0  0
   -3.4110   -0.7570    0.0000 C   0  0  0  0  0  0  0  0  0  0  0  0
   -3.1441   -2.2330    0.0000 O   0  0  0  0  0  0  0  0  0  0  0  0
   -3.3710   -3.7158    0.0000 C   0  0  0  0  0  0  0  0  0  0  0  0
   -1.9458   -4.1836    0.0000 O   0  0  0  0  0  0  0  0  0  0  0  0
   -4.0670   -5.0445    0.0000 C   0  0  0  0  0  0  0  0  0  0  0  0
   -5.1567   -6.0753    0.0000 C   0  0  0  0  0  0  0  0  0  0  0  0
   -6.5221   -6.6963    0.0000 C   0  0  0  0  0  0  0  0  0  0  0  0
   -8.0152   -6.8404    0.0000 C   0  0  0  0  0  0  0  0  0  0  0  0
   -9.4741   -6.4918    0.0000 C   0  0  0  0  0  0  0  0  0  0  0  0
  -10.7409   -5.6885    0.0000 C   0  0  0  0  0  0  0  0  0  0  0  0
  -11.6781   -4.5173    0.0000 C   0  0  0  0  0  0  0  0  0  0  0  0
  -12.1843   -3.1053    0.0000 C   0  0  0  0  0  0  0  0  0  0  0  0
  -12.2045   -1.6054    0.0000 C   0  0  0  0  0  0  0  0  0  0  0  0
  -11.7367   -0.1803    0.0000 C   0  0  0  0  0  0  0  0  0  0  0  0
  -13.0655    0.5158    0.0000 C   0  0  0  0  0  0  0  0  0  0  0  0
  -14.3326   -0.2870    0.0000 C   0  0  0  0  0  0  0  0  0  0  0  0
  -15.6613    0.4091    0.0000 C   0  0  0  0  0  0  0  0  0  0  0  0
  -16.9285   -0.3936    0.0000 C   0  0  0  0  0  0  0  0  0  0  0  0
  -18.2572    0.3024    0.0000 C   0  0  0  0  0  0  0  0  0  0  0  0
  -10.8315    1.0158    0.0000 O   0  0  0  0  0  0  0  0  0  0  0  0
   -9.5869    1.8531    0.0000 C   0  0  0  0  0  0  0  0  0  0  0  0
  -10.6473    2.9141    0.0000 O   0  0  0  0  0  0  0  0  0  0  0  0
  -10.2587    4.3628    0.0000 C   0  0  0  0  0  0  0  0  0  0  0  0
  -11.3191    5.4238    0.0000 C   0  0  0  0  0  0  0  0  0  0  0  0
   -8.8097    4.7507    0.0000 C   0  0  0  0  0  0  0  0  0  0  0  0
   -8.4211    6.1995    0.0000 O   0  0  0  0  0  0  0  0  0  0  0  0
   -7.7493    3.6898    0.0000 C   0  0  0  0  0  0  0  0  0  0  0  0
   -6.3004    4.0776    0.0000 O   0  0  0  0  0  0  0  0  0  0  0  0
   -8.1380    2.2410    0.0000 C   0  0  0  0  0  0  0  0  0  0  0  0
   -6.6415    2.1373    0.0000 O   0  0  0  0  0  0  0  0  0  0  0  0
   -5.2599    1.5534    0.0000 C   0  0  0  0  0  0  0  0  0  0  0  0
   -3.8631    2.2088    0.0000 O   0  0  0  0  0  0  0  0  0  0  0  0
   -2.4659    1.6631    0.0000 C   0  0  0  0  0  0  0  0  0  0  0  0
   -1.2948    2.6004    0.0000 C   0  0  0  0  0  0  0  0  0  0  0  0
   -4.1426    0.5525    0.0000 C   0  0  0  0  0  0  0  0  0  0  0  0
   -3.0385    1.0595    0.0000 O   0  0  0  0  0  0  0  0  0  0  0  0
    0.1025    2.0548    0.0000 O   0  0  0  0  0  0  0  0  0  0  0  0
    1.2736    2.9920    0.0000 C   0  0  0  0  0  0  0  0  0  0  0  0
    1.0475    4.4749    0.0000 C   0  0  0  0  0  0  0  0  0  0  0  0
    2.6709    2.4464    0.0000 C   0  0  0  0  0  0  0  0  0  0  0  0
    3.8420    3.3836    0.0000 O   0  0  0  0  0  0  0  0  0  0  0  0
    5.2393    2.8380    0.0000 C   0  0  0  0  0  0  0  0  0  0  0  0
    5.4654    1.3551    0.0000 O   0  0  0  0  0  0  0  0  0  0  0  0
    6.8626    0.8095    0.0000 C   0  0  0  0  0  0  0  0  0  0  0  0
    7.0887   -0.6734    0.0000 C   0  0  0  0  0  0  0  0  0  0  0  0
    8.0338    1.7467    0.0000 C   0  0  0  0  0  0  0  0  0  0  0  0
    9.4310    1.2011    0.0000 O   0  0  0  0  0  0  0  0  0  0  0  0
   10.6022    2.1383    0.0000 C   0  0  0  0  0  0  0  0  0  0  0  0
   10.3761    3.6212    0.0000 O   0  0  0  0  0  0  0  0  0  0  0  0
   11.9994    1.5927    0.0000 C   0  0  0  0  0  0  0  0  0  0  0  0
   13.1706    2.5299    0.0000 C   0  0  0  0  0  0  0  0  0  0  0  0
   12.2255    0.1098    0.0000 C   0  0  0  0  0  0  0  0  0  0  0  0
   13.6227   -0.4358    0.0000 C   0  0  0  0  0  0  0  0  0  0  0  0
    7.8077    3.2296    0.0000 C   0  0  0  0  0  0  0  0  0  0  0  0
    9.0843    4.0171    0.0000 O   0  0  0  0  0  0  0  0  0  0  0  0
    6.4104    3.7752    0.0000 C   0  0  0  0  0  0  0  0  0  0  0  0
    6.3668    5.2746    0.0000 O   0  0  0  0  0  0  0  0  0  0  0  0
    2.8970    0.9635    0.0000 C   0  0  0  0  0  0  0  0  0  0  0  0
    4.2942    0.4179    0.0000 O   0  0  0  0  0  0  0  0  0  0  0  0
    5.4654    1.3551    0.0000 C   0  0  0  0  0  0  0  0  0  0  0  0
    6.8626    0.8095    0.0000 O   0  0  0  0  0  0  0  0  0  0  0  0
    8.0338    1.7467    0.0000 C   0  0  0  0  0  0  0  0  0  0  0  0
    9.5215    1.5554    0.0000 C   0  0  0  0  0  0  0  0  0  0  0  0
    7.8077    3.2296    0.0000 C   0  0  0  0  0  0  0  0  0  0  0  0
    8.8558    4.3026    0.0000 O   0  0  0  0  0  0  0  0  0  0  0  0
    6.4104    3.7752    0.0000 C   0  0  0  0  0  0  0  0  0  0  0  0
    6.0053    5.2195    0.0000 O   0  0  0  0  0  0  0  0  0  0  0  0
    5.2393    2.8380    0.0000 C   0  0  0  0  0  0  0  0  0  0  0  0
    4.0156    3.7055    0.0000 O   0  0  0  0  0  0  0  0  0  0  0  0
  1  2  1  0
  2  3  1  0
  3  4  1  0
  4  5  1  0
  5  6  1  0
  6  7  1  0
  7  8  1  0
  8  9  1  0
  9 10  1  0
 10 11  2  0
 10 12  1  0
 13 12  1  1
 13 14  1  0
 14 15  1  6
 16 15  1  6
 16 17  1  0
 17 18  1  1
 18 19  1  0
 19 20  2  0
 19 21  1  0
 21 22  1  0
 22 23  1  0
 23 24  1  0
 24 25  1  0
 25 26  1  0
 26 27  1  0
 27 28  1  0
 28 29  1  0
 29 30  1  0
 30 31  1  6
 31 32  1  0
 32 33  1  0
 33 34  1  0
 34 35  1  0
 30 36  1  0
 37 36  1  6
 37 38  1  0
 38 39  1  0
 39 40  1  6
 39 41  1  0
 41 42  1  6
 41 43  1  0
 43 44  1  6
 43 45  1  0
 45 46  1  1
 47 46  1  6
 47 48  1  0
 48 49  1  0
 49 50  1  1
 47 51  1  0
 51 52  1  6
 14 53  1  0
 53 54  1  0
 54 55  1  1
 54 56  1  0
 56 57  1  6
 58 57  1  1
 58 59  1  0
 59 60  1  0
 60 61  1  6
 60 62  1  0
 62 63  1  1
 63 64  1  0
 64 65  2  0
 64 66  1  0
 66 67  1  1
 66 68  1  0
 68 69  1  0
 62 70  1  0
 70 71  1  6
 70 72  1  0
 72 73  1  6
 56 74  1  0
 74 75  1  1
 76 75  1  1
 76 77  1  0
 77 78  1  0
 78 79  1  6
 78 80  1  0
 80 81  1  1
 80 82  1  0
 82 83  1  6
 82 84  1  0
 84 85  1  6
 74 13  1  0
 84 76  1  0
 49 16  1  0
 72 58  1  0
 51 17  1  0
 45 37  1  0
M  END
>  <identifier>  (370) 
CNP0175682.1

>  <canonical_smiles>  (370) 
CCCCCCCCCC(=O)O[C@H]1[C@H](O[C@@H]2[C@H]3OC(=O)CCCCCCCCC[C@H](CCCCC)O[C@@H]4O[C@H](C)[C@H](O)[C@H](O)[C@H]4O[C@H](O[C@H]2C)[C@@H]3O)O[C@@H](C)[C@H](O[C@@H]2O[C@@H](C)[C@H](OC(=O)[C@@H](C)CC)[C@@H](O)[C@H]2O)[C@H]1O[C@@H]1O[C@@H](C)[C@H](O)[C@@H](O)[C@H]1O

>  <standard_inchi>  (370) 
InChI=1S/C61H106O24/c1-10-13-15-16-18-22-27-31-40(63)80-55-54(85-57-46(69)43(66)41(64)33(5)73-57)51(82-58-47(70)45(68)49(35(7)75-58)81-56(72)32(4)12-3)37(9)77-61(55)83-50-36(8)76-59-48(71)52(50)79-39(62)30-26-23-20-17-19-21-25-29-38(28-24-14-11-2)78-60-53(84-59)44(67)42(65)34(6)74-60/h32-38,41-55,57-61,64-71H,10-31H2,1-9H3/t32-,33-,34+,35-,36-,37-,38-,41-,42-,43+,44-,45-,46+,47+,48+,49-,50-,51-,52-,53+,54+,55+,57-,58-,59-,60-,61-/m0/s1

>  <standard_inchi_key>  (370) 
VQJSKLDVGOAPNT-XNPMHXEPSA-N

>  <name>  (370) 
stoloniferin III

>  <iupac_name>  (370) 
[(2~{S},3~{R},4~{R},5~{S},6~{S})-5-[(2~{S},3~{R},4~{S},5~{R},6~{S})-3,4-dihydroxy-6-methyl-5-[(2~{S})-2-methylbutanoyl]oxy-tetrahydropyran-2-yl]oxy-6-methyl-2-[[(1~{S},3~{R},4~{S},5~{R},6~{R},8~{R},10~{S},22~{S},23~{S},24~{S},26~{R})-4,5,26-trihydroxy-6,24-dimethyl-20-oxo-10-pentyl-2,7,9,21,25-pentaoxatricyclo[20.3.1.0^{3,8}]hexacosan-23-yl]oxy]-4-[(2~{S},3~{R},4~{R},5~{R},6~{S})-3,4,5-trihydroxy-6-methyl-tetrahydropyran-2-yl]oxy-tetrahydropyran-3-yl] decanoate

>  <annotation_level>  (370) 
5

>  <total_atom_count>  (370) 
191

>  <heavy_atom_count>  (370) 
85

>  <molecular_weight>  (370) 
1223.5

>  <exact_molecular_weight>  (370) 
1222.7074

>  <molecular_formula>  (370) 
C61H106O24

>  <alogp>  (370) 
4.55

>  <topological_polar_surface_area>  (370) 
333.04

>  <rotatable_bond_count>  (370) 
22

>  <hydrogen_bond_acceptors>  (370) 
24

>  <hydrogen_bond_donors>  (370) 
8

>  <hydrogen_bond_acceptors_lipinski>  (370) 
24

>  <hydrogen_bond_donors_lipinski>  (370) 
8

>  <lipinski_rule_of_five_violations>  (370) 
3

>  <aromatic_rings_count>  (370) 
0

>  <qed_drug_likeliness>  (370) 
0.04

>  <formal_charge>  (370) 
0

>  <fractioncsp3>  (370) 
0.95

>  <number_of_minimal_rings>  (370) 
6

>  <van_der_walls_volume>  (370) 
nan

>  <contains_sugar>  (370) 
True

>  <contains_ring_sugars>  (370) 
True

>  <contains_linear_sugars>  (370) 
False

>  <murcko_framework>  (370) 
O1CCCCC1OC2COC(OC3COC4OC5CCCOC5OCCCCCCCCCCCOC3C4)CC2OC6OCCCC6

>  <np_likeness>  (370) 
1.27

>  <chemical_class>  (370) 
Fatty Acyls

>  <chemical_sub_class>  (370) 
Fatty acyl glycosides

>  <chemical_super_class>  (370) 
Lipids and lipid-like molecules

>  <direct_parent_classification>  (370) 
Fatty acyl glycosides of mono- and disaccharides

>  <np_classifier_pathway>  (370) 
Fatty acids

>  <np_classifier_superclass>  (370) 
Fatty acyls

>  <np_classifier_class>  (370) 
Resin glycosides

>  <np_classifier_is_glycoside>  (370) 
True

>  <organisms>  (370) 
Ipomea pes caprae|Ipomoea pes-caprae

>  <collections>  (370) 
BIOFACQUIM|ChEBI NPs|Latin America dataset|NPASS|Super Natural II

>  <dois>  (370) 
10.1021/np0496340|10.1021/np100640f

>  <synonyms>  (370) 
CHEBI:67861|CHEMBL447968|Q27136338|Stoloniferin III

>  <cas>  (370) 
nan

$$$$

     RDKit          2D

 25 26  0  0  0  0  0  0  0  0999 V2000
   -7.4749    0.4158    0.0000 C   0  0  0  0  0  0  0  0  0  0  0  0
   -6.3310   -0.5545    0.0000 C   0  0  0  0  0  0  0  0  0  0  0  0
   -6.5994   -2.0303    0.0000 O   0  0  0  0  0  0  0  0  0  0  0  0
   -4.9188   -0.0491    0.0000 O   0  0  0  0  0  0  0  0  0  0  0  0
   -3.7749   -1.0194    0.0000 C   0  0  0  0  0  0  0  0  0  0  0  0
   -2.3626   -0.5139    0.0000 C   0  0  0  0  0  0  0  0  0  0  0  0
   -1.5089   -1.7473    0.0000 C   0  0  0  0  0  0  0  0  0  0  0  0
   -0.1528   -2.3885    0.0000 C   0  0  0  0  0  0  0  0  0  0  0  0
    1.5360   -2.0372    0.0000 C   0  0  0  0  0  0  0  0  0  0  0  0
    2.6799   -3.0076    0.0000 C   0  0  0  0  0  0  0  0  0  0  0  0
    4.0922   -2.5021    0.0000 C   0  0  0  0  0  0  0  0  0  0  0  0
    4.3606   -1.0263    0.0000 C   0  0  0  0  0  0  0  0  0  0  0  0
    5.1175    0.2687    0.0000 C   0  0  0  0  0  0  0  0  0  0  0  0
    5.7673   -1.5469    0.0000 O   0  0  0  0  0  0  0  0  0  0  0  0
    3.2167   -0.0560    0.0000 C   0  0  0  0  0  0  0  0  0  0  0  0
    3.0940    1.4390    0.0000 C   0  0  0  0  0  0  0  0  0  0  0  0
    2.2402    2.6723    0.0000 C   0  0  0  0  0  0  0  0  0  0  0  0
    0.8842    3.3135    0.0000 C   0  0  0  0  0  0  0  0  0  0  0  0
    1.1526    4.7893    0.0000 C   0  0  0  0  0  0  0  0  0  0  0  0
   -0.3491    2.4598    0.0000 C   0  0  0  0  0  0  0  0  0  0  0  0
   -1.8441    2.3371    0.0000 C   0  0  0  0  0  0  0  0  0  0  0  0
   -2.4853    0.9810    0.0000 C   0  0  0  0  0  0  0  0  0  0  0  0
    1.8044   -0.5614    0.0000 C   0  0  0  0  0  0  0  0  0  0  0  0
    0.3044   -0.5534    0.0000 C   0  0  0  0  0  0  0  0  0  0  0  0
    1.5519    0.9172    0.0000 C   0  0  0  0  0  0  0  0  0  0  0  0
  1  2  1  0
  2  3  2  0
  2  4  1  0
  4  5  1  0
  5  6  1  0
  6  7  2  3
  7  8  1  0
  9  8  1  1
  9 10  1  0
 10 11  1  0
 11 12  1  0
 12 13  1  6
 12 14  1  0
 12 15  1  0
 15 16  1  6
 16 17  1  0
 17 18  1  0
 18 19  1  0
 18 20  2  0
 20 21  1  0
 21 22  1  0
 15 23  1  0
 23 24  1  0
 23 25  1  0
 22  6  1  0
 23  9  1  0
M  END
>  <identifier>  (371) 
CNP0145964.1

>  <canonical_smiles>  (371) 
CC(=O)OCC1=CC[C@@H]2CC[C@](C)(O)[C@@H](CC/C(C)=C/CC1)C2(C)C

>  <standard_inchi>  (371) 
InChI=1S/C22H36O3/c1-16-7-6-8-18(15-25-17(2)23)10-11-19-13-14-22(5,24)20(12-9-16)21(19,3)4/h7,10,19-20,24H,6,8-9,11-15H2,1-5H3/b16-7+,18-10?/t19-,20+,22+/m1/s1

>  <standard_inchi_key>  (371) 
ONBYNDRDNDICPR-CENWQKJPSA-N

>  <name>  (371) 
(1S 3Z 7E 11S 12S)-(+)-verticilla-3 7-dien-12 20-diol 20-acetate

>  <iupac_name>  (371) 
[(1~{S},7~{E},11~{S},12~{S})-12-hydroxy-8,12,15,15-tetramethyl-4-bicyclo[9.3.1]pentadeca-3,7-dienyl]methyl acetate

>  <annotation_level>  (371) 
5

>  <total_atom_count>  (371) 
61

>  <heavy_atom_count>  (371) 
25

>  <molecular_weight>  (371) 
348.53

>  <exact_molecular_weight>  (371) 
348.26645

>  <molecular_formula>  (371) 
C22H36O3

>  <alogp>  (371) 
5.19

>  <topological_polar_surface_area>  (371) 
46.53

>  <rotatable_bond_count>  (371) 
2

>  <hydrogen_bond_acceptors>  (371) 
3

>  <hydrogen_bond_donors>  (371) 
1

>  <hydrogen_bond_acceptors_lipinski>  (371) 
3

>  <hydrogen_bond_donors_lipinski>  (371) 
1

>  <lipinski_rule_of_five_violations>  (371) 
1

>  <aromatic_rings_count>  (371) 
0

>  <qed_drug_likeliness>  (371) 
0.55

>  <formal_charge>  (371) 
0

>  <fractioncsp3>  (371) 
0.77

>  <number_of_minimal_rings>  (371) 
2

>  <van_der_walls_volume>  (371) 
357.29

>  <contains_sugar>  (371) 
False

>  <contains_ring_sugars>  (371) 
False

>  <contains_linear_sugars>  (371) 
False

>  <murcko_framework>  (371) 
C1=CCCC2CCCC(CC=CCC1)C2

>  <np_likeness>  (371) 
2.53

>  <chemical_class>  (371) 
Prenol lipids

>  <chemical_sub_class>  (371) 
Diterpenoids

>  <chemical_super_class>  (371) 
Lipids and lipid-like molecules

>  <direct_parent_classification>  (371) 
Diterpenoids

>  <np_classifier_pathway>  (371) 
Terpenoids

>  <np_classifier_superclass>  (371) 
Diterpenoids

>  <np_classifier_class>  (371) 
Verticillane diterpenoids

>  <np_classifier_is_glycoside>  (371) 
False

>  <organisms>  (371) 
Artemisia minor|Bursera suntui

>  <collections>  (371) 
BIOFACQUIM|Latin America dataset|NPASS|Super Natural II

>  <dois>  (371) 
10.1021/np050323e

>  <synonyms>  (371) 
(1S 3Z 7E 11S 12S)-(+)-verticilla-3 7-dien-12 20-diol 20-acetate

>  <cas>  (371) 
nan

$$$$

     RDKit          2D

 32 36  0  0  0  0  0  0  0  0999 V2000
    1.0866   -3.9355    0.0000 C   0  0  0  0  0  0  0  0  0  0  0  0
    0.2690   -2.6779    0.0000 C   0  0  0  0  0  0  0  0  0  0  0  0
    0.9493   -1.3410    0.0000 C   0  0  0  0  0  0  0  0  0  0  0  0
    2.2862   -2.0213    0.0000 C   0  0  0  0  0  0  0  0  0  0  0  0
   -0.3662   -1.0381    0.0000 C   0  0  0  0  0  0  0  0  0  0  0  0
    1.6296   -0.0042    0.0000 C   0  0  0  0  0  0  0  0  0  0  0  0
    2.6908   -1.0643    0.0000 N   0  0  0  0  0  0  0  0  0  0  0  0
    4.0270   -0.3826    0.0000 C   0  0  0  0  0  0  0  0  0  0  0  0
    5.4276   -0.9195    0.0000 C   0  0  0  0  0  0  0  0  0  0  0  0
    5.6630   -2.4009    0.0000 O   0  0  0  0  0  0  0  0  0  0  0  0
    6.5929    0.0251    0.0000 C   0  0  0  0  0  0  0  0  0  0  0  0
    6.3575    1.5065    0.0000 C   0  0  0  0  0  0  0  0  0  0  0  0
    4.9568    2.0433    0.0000 C   0  0  0  0  0  0  0  0  0  0  0  0
    3.7916    1.0988    0.0000 C   0  0  0  0  0  0  0  0  0  0  0  0
    2.3100    1.3327    0.0000 C   0  0  0  0  0  0  0  0  0  0  0  0
    2.9903    2.6695    0.0000 O   0  0  0  0  0  0  0  0  0  0  0  0
    1.2488    2.3928    0.0000 C   0  0  0  0  0  0  0  0  0  0  0  0
   -0.0874    1.7111    0.0000 C   0  0  0  0  0  0  0  0  0  0  0  0
   -1.4881    2.2480    0.0000 C   0  0  0  0  0  0  0  0  0  0  0  0
   -1.7235    3.7294    0.0000 O   0  0  0  0  0  0  0  0  0  0  0  0
   -2.6533    1.3034    0.0000 O   0  0  0  0  0  0  0  0  0  0  0  0
   -2.4179   -0.1780    0.0000 C   0  0  0  0  0  0  0  0  0  0  0  0
   -3.5831   -1.1226    0.0000 C   0  0  0  0  0  0  0  0  0  0  0  0
   -4.9838   -0.5857    0.0000 C   0  0  0  0  0  0  0  0  0  0  0  0
   -5.2192    0.8957    0.0000 C   0  0  0  0  0  0  0  0  0  0  0  0
   -6.6198    1.4325    0.0000 C   0  0  0  0  0  0  0  0  0  0  0  0
   -7.7851    0.4880    0.0000 C   0  0  0  0  0  0  0  0  0  0  0  0
   -7.5497   -0.9934    0.0000 C   0  0  0  0  0  0  0  0  0  0  0  0
   -6.1490   -1.5303    0.0000 C   0  0  0  0  0  0  0  0  0  0  0  0
   -1.0173   -0.7148    0.0000 C   0  0  0  0  0  0  0  0  0  0  0  0
   -0.7819   -2.1963    0.0000 O   0  0  0  0  0  0  0  0  0  0  0  0
    0.1480    0.2297    0.0000 N   0  0  0  0  0  0  0  0  0  0  0  0
  1  2  2  0
  2  3  1  0
  3  4  1  0
  3  5  1  0
  6  3  1  1
  6  7  1  0
  7  8  1  0
  8  9  2  0
  9 10  1  0
  9 11  1  0
 11 12  2  0
 12 13  1  0
 13 14  2  0
 14 15  1  0
 15 16  1  1
 15 17  1  0
 18 17  1  6
 18 19  1  0
 19 20  2  0
 19 21  1  0
 21 22  1  0
 22 23  1  6
 23 24  1  0
 24 25  2  0
 25 26  1  0
 26 27  2  0
 27 28  1  0
 28 29  2  0
 22 30  1  0
 30 31  2  0
 30 32  1  0
 15  6  1  0
 32 18  1  0
 32  6  1  0
 14  8  1  0
 29 24  1  0
M  END
>  <identifier>  (372) 
CNP0354674.1

>  <canonical_smiles>  (372) 
C=CC(C)(C)[C@]12NC3=C(O)C=CC=C3[C@@]1(O)C[C@H]1C(=O)O[C@@H](CC3=CC=CC=C3)C(=O)N12

>  <standard_inchi>  (372) 
InChI=1S/C25H26N2O5/c1-4-23(2,3)25-24(31,16-11-8-12-18(28)20(16)26-25)14-17-22(30)32-19(21(29)27(17)25)13-15-9-6-5-7-10-15/h4-12,17,19,26,28,31H,1,13-14H2,2-3H3/t17-,19-,24-,25+/m0/s1

>  <standard_inchi_key>  (372) 
VMKCIRAJEVFSFR-LQTXRJQHSA-N

>  <name>  (372) 
Shornephine A

>  <iupac_name>  (372) 
(1~{R},4~{S},7~{S},9~{S})-4-benzyl-1-(1,1-dimethylallyl)-9,14-dihydroxy-5-oxa-2,16-diazatetracyclo[7.7.0.0^{2,7}.0^{10,15}]hexadeca-10,12,14-triene-3,6-dione

>  <annotation_level>  (372) 
5

>  <total_atom_count>  (372) 
58

>  <heavy_atom_count>  (372) 
32

>  <molecular_weight>  (372) 
434.49

>  <exact_molecular_weight>  (372) 
434.18417

>  <molecular_formula>  (372) 
C25H26N2O5

>  <alogp>  (372) 
2.68

>  <topological_polar_surface_area>  (372) 
99.10

>  <rotatable_bond_count>  (372) 
4

>  <hydrogen_bond_acceptors>  (372) 
6

>  <hydrogen_bond_donors>  (372) 
3

>  <hydrogen_bond_acceptors_lipinski>  (372) 
6

>  <hydrogen_bond_donors_lipinski>  (372) 
3

>  <lipinski_rule_of_five_violations>  (372) 
0

>  <aromatic_rings_count>  (372) 
2

>  <qed_drug_likeliness>  (372) 
0.39

>  <formal_charge>  (372) 
0

>  <fractioncsp3>  (372) 
0.36

>  <number_of_minimal_rings>  (372) 
5

>  <van_der_walls_volume>  (372) 
385.38

>  <contains_sugar>  (372) 
False

>  <contains_ring_sugars>  (372) 
False

>  <contains_linear_sugars>  (372) 
False

>  <murcko_framework>  (372) 
O1CC2N(CC1Cc3ccccc3)C4Nc5ccccc5C4C2

>  <np_likeness>  (372) 
1.65

>  <chemical_class>  (372) 
Peptidomimetics

>  <chemical_sub_class>  (372) 
Hybrid peptides

>  <chemical_super_class>  (372) 
Organic acids and derivatives

>  <direct_parent_classification>  (372) 
Hybrid peptides

>  <np_classifier_pathway>  (372) 
Alkaloids

>  <np_classifier_superclass>  (372) 
Peptide alkaloids

>  <np_classifier_class>  (372) 
Other indole diketopiperazine alkaloids

>  <np_classifier_is_glycoside>  (372) 
False

>  <organisms>  (372) 
Aspergillus sp.|Aspergillus sp. (CMB-M081F)|Aspergillus sp. MEXU 27854|Aspergillus sp. MEXU 27859

>  <collections>  (372) 
BIOFACQUIM|CMNPD|EMNPD|Latin America dataset|NPASS|NPAtlas

>  <dois>  (372) 
10.1021/acs.jnatprod.7b00331|10.1021/jo501501z|10.1039/c5np00156k

>  <synonyms>  (372) 
(1R|4S|7S|9S)-4-benzyl-9|14-dihydroxy-1-(2-methylbut-3-en-2-yl)-5-oxa-2|16-diazatetracyclo7.7.0.02|7.010|15hexadeca-10(15)|11|13-triene-3|6-dione|CHEMBL4205964|CHEBI:222141|PF1233 B|Shornephine A

>  <cas>  (372) 
nan

$$$$

     RDKit          2D

 20 21  0  0  0  0  0  0  0  0999 V2000
   -4.7154   -1.0331    0.0000 C   0  0  0  0  0  0  0  0  0  0  0  0
   -3.5741   -0.0597    0.0000 C   0  0  0  0  0  0  0  0  0  0  0  0
   -3.8465    1.4153    0.0000 C   0  0  0  0  0  0  0  0  0  0  0  0
   -2.7053    2.3888    0.0000 C   0  0  0  0  0  0  0  0  0  0  0  0
   -1.2917    1.8871    0.0000 C   0  0  0  0  0  0  0  0  0  0  0  0
    0.1629    2.8145    0.0000 C   0  0  0  0  0  0  0  0  0  0  0  0
    1.6582    2.6958    0.0000 C   0  0  0  0  0  0  0  0  0  0  0  0
    2.8938    1.8454    0.0000 C   0  0  0  0  0  0  0  0  0  0  0  0
    4.0350    2.8188    0.0000 C   0  0  0  0  0  0  0  0  0  0  0  0
    3.5387    0.4911    0.0000 C   0  0  0  0  0  0  0  0  0  0  0  0
    3.4200   -1.0042    0.0000 C   0  0  0  0  0  0  0  0  0  0  0  0
    2.5696   -2.2398    0.0000 C   0  0  0  0  0  0  0  0  0  0  0  0
    1.2153   -2.8847    0.0000 C   0  0  0  0  0  0  0  0  0  0  0  0
    1.4877   -4.3598    0.0000 C   0  0  0  0  0  0  0  0  0  0  0  0
   -0.2800   -2.7661    0.0000 C   0  0  0  0  0  0  0  0  0  0  0  0
   -1.5156   -1.9156    0.0000 C   0  0  0  0  0  0  0  0  0  0  0  0
   -2.1605   -0.5614    0.0000 C   0  0  0  0  0  0  0  0  0  0  0  0
   -1.0193    0.4121    0.0000 C   0  0  0  0  0  0  0  0  0  0  0  0
    0.3861    0.9365    0.0000 C   0  0  0  0  0  0  0  0  0  0  0  0
   -0.2588   -0.8809    0.0000 C   0  0  0  0  0  0  0  0  0  0  0  0
  1  2  2  0
  2  3  1  0
  3  4  1  0
  5  4  1  1
  5  6  1  0
  6  7  1  0
  7  8  2  3
  8  9  1  0
  8 10  1  0
 10 11  1  0
 11 12  1  0
 12 13  2  3
 13 14  1  0
 13 15  1  0
 15 16  1  0
 17 16  1  6
 17 18  1  0
 18 19  1  0
 18 20  1  0
 17  2  1  0
 18  5  1  0
M  END
>  <identifier>  (373) 
CNP0284312.1

>  <canonical_smiles>  (373) 
C=C1CC[C@H]2CC=C(C)CCC=C(C)CC[C@H]1C2(C)C

>  <standard_inchi>  (373) 
InChI=1S/C20H32/c1-15-7-6-8-16(2)10-14-19-17(3)11-13-18(12-9-15)20(19,4)5/h8-9,18-19H,3,6-7,10-14H2,1-2,4-5H3/t18-,19-/m1/s1

>  <standard_inchi_key>  (373) 
FDBOKUQSBGGGJO-RTBURBONSA-N

>  <name>  (373) 
(1S 3E 7E 11R)-(+)-verticilla-3 7 12(18)-triene

>  <iupac_name>  (373) 
(1~{S},11~{R})-4,8,15,15-tetramethyl-12-methylene-bicyclo[9.3.1]pentadeca-3,7-diene

>  <annotation_level>  (373) 
5

>  <total_atom_count>  (373) 
52

>  <heavy_atom_count>  (373) 
20

>  <molecular_weight>  (373) 
272.48

>  <exact_molecular_weight>  (373) 
272.2504

>  <molecular_formula>  (373) 
C20H32

>  <alogp>  (373) 
6.45

>  <topological_polar_surface_area>  (373) 
0.00

>  <rotatable_bond_count>  (373) 
0

>  <hydrogen_bond_acceptors>  (373) 
0

>  <hydrogen_bond_donors>  (373) 
0

>  <hydrogen_bond_acceptors_lipinski>  (373) 
0

>  <hydrogen_bond_donors_lipinski>  (373) 
0

>  <lipinski_rule_of_five_violations>  (373) 
1

>  <aromatic_rings_count>  (373) 
0

>  <qed_drug_likeliness>  (373) 
0.44

>  <formal_charge>  (373) 
0

>  <fractioncsp3>  (373) 
0.70

>  <number_of_minimal_rings>  (373) 
2

>  <van_der_walls_volume>  (373) 
299.70

>  <contains_sugar>  (373) 
False

>  <contains_ring_sugars>  (373) 
False

>  <contains_linear_sugars>  (373) 
False

>  <murcko_framework>  (373) 
C1=CCCC2CCCC(CC=CCC1)C2

>  <np_likeness>  (373) 
2.58

>  <chemical_class>  (373) 
Prenol lipids

>  <chemical_sub_class>  (373) 
Diterpenoids

>  <chemical_super_class>  (373) 
Lipids and lipid-like molecules

>  <direct_parent_classification>  (373) 
Diterpenoids

>  <np_classifier_pathway>  (373) 
Terpenoids

>  <np_classifier_superclass>  (373) 
Diterpenoids

>  <np_classifier_class>  (373) 
Verticillane diterpenoids

>  <np_classifier_is_glycoside>  (373) 
False

>  <organisms>  (373) 
Bursera suntui

>  <collections>  (373) 
BIOFACQUIM|Latin America dataset

>  <dois>  (373) 
10.1021/np050323e

>  <synonyms>  (373) 
(1S 3E 7E 11R)-(+)-verticilla-3 7 12(18)-triene

>  <cas>  (373) 
nan

$$$$

     RDKit          2D

 20 21  0  0  0  0  0  0  0  0999 V2000
   -4.6614   -1.1736    0.0000 C   0  0  0  0  0  0  0  0  0  0  0  0
   -3.5577   -0.1577    0.0000 C   0  0  0  0  0  0  0  0  0  0  0  0
   -3.8857    1.3060    0.0000 C   0  0  0  0  0  0  0  0  0  0  0  0
   -2.7821    2.3218    0.0000 C   0  0  0  0  0  0  0  0  0  0  0  0
   -1.3505    1.8740    0.0000 C   0  0  0  0  0  0  0  0  0  0  0  0
    0.0679    2.8557    0.0000 C   0  0  0  0  0  0  0  0  0  0  0  0
    1.3348    2.0526    0.0000 C   0  0  0  0  0  0  0  0  0  0  0  0
    2.8336    1.9905    0.0000 C   0  0  0  0  0  0  0  0  0  0  0  0
    3.9372    3.0064    0.0000 C   0  0  0  0  0  0  0  0  0  0  0  0
    3.5292    0.6616    0.0000 C   0  0  0  0  0  0  0  0  0  0  0  0
    3.4671   -0.8371    0.0000 C   0  0  0  0  0  0  0  0  0  0  0  0
    2.6640   -2.1040    0.0000 C   0  0  0  0  0  0  0  0  0  0  0  0
    1.3351   -2.7997    0.0000 C   0  0  0  0  0  0  0  0  0  0  0  0
    1.6630   -4.2634    0.0000 C   0  0  0  0  0  0  0  0  0  0  0  0
   -0.1636   -2.7376    0.0000 C   0  0  0  0  0  0  0  0  0  0  0  0
   -1.4305   -1.9345    0.0000 C   0  0  0  0  0  0  0  0  0  0  0  0
   -2.1262   -0.6056    0.0000 C   0  0  0  0  0  0  0  0  0  0  0  0
   -1.0225    0.4103    0.0000 C   0  0  0  0  0  0  0  0  0  0  0  0
    0.3620    0.9875    0.0000 C   0  0  0  0  0  0  0  0  0  0  0  0
   -0.2137   -0.8530    0.0000 C   0  0  0  0  0  0  0  0  0  0  0  0
  1  2  1  0
  2  3  2  0
  3  4  1  0
  5  4  1  1
  5  6  1  0
  6  7  1  0
  7  8  2  0
  8  9  1  0
  8 10  1  0
 10 11  1  0
 11 12  1  0
 12 13  2  0
 13 14  1  0
 13 15  1  0
 15 16  1  0
 17 16  1  6
 17 18  1  0
 18 19  1  0
 18 20  1  0
 17  2  1  0
 18  5  1  0
M  END
>  <identifier>  (374) 
CNP0201465.1

>  <canonical_smiles>  (374) 
CC1=CC[C@H]2C/C=C(\C)CC/C=C(/C)CC[C@H]1C2(C)C

>  <standard_inchi>  (374) 
InChI=1S/C20H32/c1-15-7-6-8-16(2)10-14-19-17(3)11-13-18(12-9-15)20(19,4)5/h8-9,11,18-19H,6-7,10,12-14H2,1-5H3/b15-9+,16-8-/t18-,19-/m1/s1

>  <standard_inchi_key>  (374) 
QNMSLJUGAUPVTC-ZNOGWTIRSA-N

>  <name>  (374) 
(1R 3E 7E 11R 12Z)-(+)-verticilla-3 7 12-triene

>  <iupac_name>  (374) 
(1~{R},3~{E},7~{Z},11~{R})-4,8,12,15,15-pentamethylbicyclo[9.3.1]pentadeca-3,7,12-triene

>  <annotation_level>  (374) 
5

>  <total_atom_count>  (374) 
52

>  <heavy_atom_count>  (374) 
20

>  <molecular_weight>  (374) 
272.48

>  <exact_molecular_weight>  (374) 
272.2504

>  <molecular_formula>  (374) 
C20H32

>  <alogp>  (374) 
6.45

>  <topological_polar_surface_area>  (374) 
0.00

>  <rotatable_bond_count>  (374) 
0

>  <hydrogen_bond_acceptors>  (374) 
0

>  <hydrogen_bond_donors>  (374) 
0

>  <hydrogen_bond_acceptors_lipinski>  (374) 
0

>  <hydrogen_bond_donors_lipinski>  (374) 
0

>  <lipinski_rule_of_five_violations>  (374) 
1

>  <aromatic_rings_count>  (374) 
0

>  <qed_drug_likeliness>  (374) 
0.44

>  <formal_charge>  (374) 
0

>  <fractioncsp3>  (374) 
0.70

>  <number_of_minimal_rings>  (374) 
2

>  <van_der_walls_volume>  (374) 
296.04

>  <contains_sugar>  (374) 
False

>  <contains_ring_sugars>  (374) 
False

>  <contains_linear_sugars>  (374) 
False

>  <murcko_framework>  (374) 
C1=CCCC2C=CCC(CC=CCC1)C2

>  <np_likeness>  (374) 
2.25

>  <chemical_class>  (374) 
Prenol lipids

>  <chemical_sub_class>  (374) 
Diterpenoids

>  <chemical_super_class>  (374) 
Lipids and lipid-like molecules

>  <direct_parent_classification>  (374) 
Diterpenoids

>  <np_classifier_pathway>  (374) 
Terpenoids

>  <np_classifier_superclass>  (374) 
Diterpenoids

>  <np_classifier_class>  (374) 
Verticillane diterpenoids

>  <np_classifier_is_glycoside>  (374) 
False

>  <organisms>  (374) 
Artemisia minor|Bursera suntui

>  <collections>  (374) 
BIOFACQUIM|Latin America dataset|NPASS|Super Natural II

>  <dois>  (374) 
10.1021/np050323e

>  <synonyms>  (374) 
(1R 3E 7E 11R 12Z)-(+)-verticilla-3 7 12-triene

>  <cas>  (374) 
nan

$$$$

     RDKit          2D

 20 21  0  0  0  0  0  0  0  0999 V2000
   -3.6081    3.1854    0.0000 C   0  0  0  0  0  0  0  0  0  0  0  0
   -2.6024    2.0725    0.0000 C   0  0  0  0  0  0  0  0  0  0  0  0
   -3.4171    0.8130    0.0000 C   0  0  0  0  0  0  0  0  0  0  0  0
   -3.4929   -0.6851    0.0000 C   0  0  0  0  0  0  0  0  0  0  0  0
   -2.8096   -2.0204    0.0000 C   0  0  0  0  0  0  0  0  0  0  0  0
   -1.5501   -2.8351    0.0000 C   0  0  0  0  0  0  0  0  0  0  0  0
   -2.0111   -4.2625    0.0000 C   0  0  0  0  0  0  0  0  0  0  0  0
   -0.0520   -2.9109    0.0000 C   0  0  0  0  0  0  0  0  0  0  0  0
    1.2833   -2.2275    0.0000 C   0  0  0  0  0  0  0  0  0  0  0  0
    2.0352   -0.6750    0.0000 C   0  0  0  0  0  0  0  0  0  0  0  0
    3.5018   -0.3605    0.0000 C   0  0  0  0  0  0  0  0  0  0  0  0
    4.5075   -1.4734    0.0000 C   0  0  0  0  0  0  0  0  0  0  0  0
    3.9628    1.0669    0.0000 C   0  0  0  0  0  0  0  0  0  0  0  0
    2.9571    2.1798    0.0000 C   0  0  0  0  0  0  0  0  0  0  0  0
    1.4904    1.8653    0.0000 C   0  0  0  0  0  0  0  0  0  0  0  0
    0.2310    2.6800    0.0000 C   0  0  0  0  0  0  0  0  0  0  0  0
   -1.2671    2.7558    0.0000 C   0  0  0  0  0  0  0  0  0  0  0  0
    1.0295    0.4379    0.0000 C   0  0  0  0  0  0  0  0  0  0  0  0
    0.1081   -0.7458    0.0000 C   0  0  0  0  0  0  0  0  0  0  0  0
   -0.2962    1.1397    0.0000 C   0  0  0  0  0  0  0  0  0  0  0  0
  1  2  2  0
  2  3  1  0
  3  4  1  0
  4  5  1  0
  5  6  2  0
  6  7  1  0
  6  8  1  0
  8  9  1  0
  9 10  1  0
 10 11  2  0
 11 12  1  0
 11 13  1  0
 13 14  1  0
 15 14  1  6
 15 16  1  0
 16 17  1  0
 15 18  1  0
 18 19  1  0
 18 20  1  0
 17  2  1  0
 18 10  1  0
M  END
>  <identifier>  (375) 
CNP0288886.1

>  <canonical_smiles>  (375) 
C=C1CC/C=C(/C)CCC2=C(C)CC[C@@H](CC1)C2(C)C

>  <standard_inchi>  (375) 
InChI=1S/C20H32/c1-15-7-6-8-16(2)10-14-19-17(3)11-13-18(12-9-15)20(19,4)5/h8,18H,1,6-7,9-14H2,2-5H3/b16-8-/t18-/m1/s1

>  <standard_inchi_key>  (375) 
SNPPNYAGNBWZCL-CTJNPYBDSA-N

>  <name>  (375) 
nan

>  <iupac_name>  (375) 
(4~{Z},11~{R})-4,14,15,15-tetramethyl-8-methylene-bicyclo[9.3.1]pentadeca-1(14),4-diene

>  <annotation_level>  (375) 
5

>  <total_atom_count>  (375) 
52

>  <heavy_atom_count>  (375) 
20

>  <molecular_weight>  (375) 
272.48

>  <exact_molecular_weight>  (375) 
272.2504

>  <molecular_formula>  (375) 
C20H32

>  <alogp>  (375) 
6.60

>  <topological_polar_surface_area>  (375) 
0.00

>  <rotatable_bond_count>  (375) 
0

>  <hydrogen_bond_acceptors>  (375) 
0

>  <hydrogen_bond_donors>  (375) 
0

>  <hydrogen_bond_acceptors_lipinski>  (375) 
0

>  <hydrogen_bond_donors_lipinski>  (375) 
0

>  <lipinski_rule_of_five_violations>  (375) 
1

>  <aromatic_rings_count>  (375) 
0

>  <qed_drug_likeliness>  (375) 
0.44

>  <formal_charge>  (375) 
0

>  <fractioncsp3>  (375) 
0.70

>  <number_of_minimal_rings>  (375) 
2

>  <van_der_walls_volume>  (375) 
297.70

>  <contains_sugar>  (375) 
False

>  <contains_ring_sugars>  (375) 
False

>  <contains_linear_sugars>  (375) 
False

>  <murcko_framework>  (375) 
C1=CCCCCCC2CC(=CCC2)CC1

>  <np_likeness>  (375) 
2.66

>  <chemical_class>  (375) 
Prenol lipids

>  <chemical_sub_class>  (375) 
Diterpenoids

>  <chemical_super_class>  (375) 
Lipids and lipid-like molecules

>  <direct_parent_classification>  (375) 
Diterpenoids

>  <np_classifier_pathway>  (375) 
Terpenoids

>  <np_classifier_superclass>  (375) 
Diterpenoids

>  <np_classifier_class>  (375) 
Verticillane diterpenoids

>  <np_classifier_is_glycoside>  (375) 
False

>  <organisms>  (375) 
Bursera suntui

>  <collections>  (375) 
BIOFACQUIM|Latin America dataset|Super Natural II

>  <dois>  (375) 
10.1021/np050323e

>  <synonyms>  (375) 
(1R 7E 11Z)-(\u201a\u00e0\u00ed)-verticilla-4(20) 7 11-triene

>  <cas>  (375) 
nan

$$$$

     RDKit          2D

 17 19  0  0  0  0  0  0  0  0999 V2000
   -3.4678   -2.1830    0.0000 C   0  0  0  0  0  0  0  0  0  0  0  0
   -2.9524   -0.7744    0.0000 C   0  0  0  0  0  0  0  0  0  0  0  0
   -3.7891    0.4706    0.0000 C   0  0  0  0  0  0  0  0  0  0  0  0
   -2.8637    1.6511    0.0000 O   0  0  0  0  0  0  0  0  0  0  0  0
   -1.4550    1.1357    0.0000 C   0  0  0  0  0  0  0  0  0  0  0  0
   -0.1294    1.8377    0.0000 C   0  0  0  0  0  0  0  0  0  0  0  0
   -0.0746    3.3367    0.0000 O   0  0  0  0  0  0  0  0  0  0  0  0
    1.1413    1.0407    0.0000 C   0  0  0  0  0  0  0  0  0  0  0  0
    1.0865   -0.4582    0.0000 C   0  0  0  0  0  0  0  0  0  0  0  0
   -0.2391   -1.1603    0.0000 C   0  0  0  0  0  0  0  0  0  0  0  0
   -0.2939   -2.6593    0.0000 C   0  0  0  0  0  0  0  0  0  0  0  0
   -1.5098   -0.3633    0.0000 C   0  0  0  0  0  0  0  0  0  0  0  0
    2.3573   -1.2552    0.0000 C   0  0  0  0  0  0  0  0  0  0  0  0
    2.3024   -2.7542    0.0000 C   0  0  0  0  0  0  0  0  0  0  0  0
    3.6828   -0.5532    0.0000 C   0  0  0  0  0  0  0  0  0  0  0  0
    3.7377    0.9458    0.0000 C   0  0  0  0  0  0  0  0  0  0  0  0
    2.4669    1.7428    0.0000 C   0  0  0  0  0  0  0  0  0  0  0  0
  1  2  1  0
  2  3  2  0
  3  4  1  0
  4  5  1  0
  5  6  2  0
  6  7  1  0
  6  8  1  0
  8  9  2  0
  9 10  1  0
 10 11  1  0
 10 12  2  0
  9 13  1  0
 13 14  1  6
 13 15  1  0
 15 16  1  0
 16 17  1  0
 12  2  1  0
 12  5  1  0
 17  8  1  0
M  END
>  <identifier>  (376) 
CNP0270189.1

>  <canonical_smiles>  (376) 
CC1=COC2=C(O)C3=C(C(C)=C12)[C@@H](C)CCC3

>  <standard_inchi>  (376) 
InChI=1S/C15H18O2/c1-8-5-4-6-11-12(8)10(3)13-9(2)7-17-15(13)14(11)16/h7-8,16H,4-6H2,1-3H3/t8-/m0/s1

>  <standard_inchi_key>  (376) 
OUFUBABGIIEJNV-QMMMGPOBSA-N

>  <name>  (376) 
Cacalol

>  <iupac_name>  (376) 
(5~{S})-3,4,5-trimethyl-5,6,7,8-tetrahydrobenzo[f]benzofuran-9-ol

>  <annotation_level>  (376) 
5

>  <total_atom_count>  (376) 
35

>  <heavy_atom_count>  (376) 
17

>  <molecular_weight>  (376) 
230.31

>  <exact_molecular_weight>  (376) 
230.13068

>  <molecular_formula>  (376) 
C15H18O2

>  <alogp>  (376) 
4.20

>  <topological_polar_surface_area>  (376) 
33.37

>  <rotatable_bond_count>  (376) 
0

>  <hydrogen_bond_acceptors>  (376) 
2

>  <hydrogen_bond_donors>  (376) 
1

>  <hydrogen_bond_acceptors_lipinski>  (376) 
2

>  <hydrogen_bond_donors_lipinski>  (376) 
1

>  <lipinski_rule_of_five_violations>  (376) 
0

>  <aromatic_rings_count>  (376) 
2

>  <qed_drug_likeliness>  (376) 
0.74

>  <formal_charge>  (376) 
0

>  <fractioncsp3>  (376) 
0.47

>  <number_of_minimal_rings>  (376) 
3

>  <van_der_walls_volume>  (376) 
220.84

>  <contains_sugar>  (376) 
False

>  <contains_ring_sugars>  (376) 
False

>  <contains_linear_sugars>  (376) 
False

>  <murcko_framework>  (376) 
o1ccc2cc3c(cc12)CCCC3

>  <np_likeness>  (376) 
1.64

>  <chemical_class>  (376) 
Prenol lipids

>  <chemical_sub_class>  (376) 
Sesquiterpenoids

>  <chemical_super_class>  (376) 
Lipids and lipid-like molecules

>  <direct_parent_classification>  (376) 
Eremophilane, 8,9-secoeremophilane and furoeremophilane sesquiterpenoids

>  <np_classifier_pathway>  (376) 
Terpenoids

>  <np_classifier_superclass>  (376) 
Sesquiterpenoids

>  <np_classifier_class>  (376) 
Cadinane sesquiterpenoids

>  <np_classifier_is_glycoside>  (376) 
False

>  <organisms>  (376) 
Adenostyles alpina|Artemisia sylvatica|Cacalia decomposita|Dryopteris austriaca|Euphorbia heterophylla|Flourensia cernua|Frantzia talamancensis|Lobaria isidiosa|Marinobacter hydrocarbonoclasticus|Meehania urticifolia|Psacalium decompositum|Psacalium radulifolium|Sclerotinia minor|Scytonema hofmannii|Stereocaulon cornutum|Suberea clavata

>  <collections>  (376) 
Australian natural products|BIOFACQUIM|KNApSaCK|Latin America dataset|NPASS|NPEdia|Super Natural II

>  <dois>  (376) 
10.1016/j.jep.2005.09.039

>  <synonyms>  (376) 
24393-79-1|(5S)-3|4|5-trimethyl-5|6|7|8-tetrahydrobenzof1benzofuran-9-ol|CHEMBL452935|SCHEMBL3134482|DTXSID40947263|3|4|5-Trimethyl-5|6|7|8-tetrahydronaphtho2|3-bfuran-9-ol|Naphtho(2|3-b)furan-9-ol| 5|6|7|8-tetrahydro-3|4|5-trimethyl-| (S)-|Cacalol

>  <cas>  (376) 
24393-79-1

$$$$

     RDKit          2D

 18 20  0  0  0  0  0  0  0  0999 V2000
   -3.4716    2.0427    0.0000 C   0  0  0  0  0  0  0  0  0  0  0  0
   -2.9435    0.6388    0.0000 C   0  0  0  0  0  0  0  0  0  0  0  0
   -3.7688   -0.6137    0.0000 C   0  0  0  0  0  0  0  0  0  0  0  0
   -2.8327   -1.7857    0.0000 O   0  0  0  0  0  0  0  0  0  0  0  0
   -1.4287   -1.2575    0.0000 C   0  0  0  0  0  0  0  0  0  0  0  0
   -1.4972    0.2409    0.0000 C   0  0  0  0  0  0  0  0  0  0  0  0
   -0.2337    1.0494    0.0000 C   0  0  0  0  0  0  0  0  0  0  0  0
    0.6770    2.2413    0.0000 C   0  0  0  0  0  0  0  0  0  0  0  0
   -1.2494    2.1533    0.0000 O   0  0  0  0  0  0  0  0  0  0  0  0
    1.0982    0.3595    0.0000 C   0  0  0  0  0  0  0  0  0  0  0  0
    1.1667   -1.1389    0.0000 C   0  0  0  0  0  0  0  0  0  0  0  0
    2.4986   -1.8289    0.0000 C   0  0  0  0  0  0  0  0  0  0  0  0
    3.7620   -1.0203    0.0000 C   0  0  0  0  0  0  0  0  0  0  0  0
    3.6935    0.4781    0.0000 C   0  0  0  0  0  0  0  0  0  0  0  0
    2.3616    1.1680    0.0000 C   0  0  0  0  0  0  0  0  0  0  0  0
    2.2931    2.6665    0.0000 C   0  0  0  0  0  0  0  0  0  0  0  0
   -0.0968   -1.9475    0.0000 C   0  0  0  0  0  0  0  0  0  0  0  0
   -0.0283   -3.4459    0.0000 O   0  0  0  0  0  0  0  0  0  0  0  0
  1  2  1  0
  2  3  2  0
  3  4  1  0
  4  5  1  0
  5  6  2  0
  6  7  1  0
  7  8  1  1
  7  9  1  0
  7 10  1  0
 10 11  2  0
 11 12  1  0
 12 13  1  0
 13 14  1  0
 14 15  1  0
 15 16  1  1
 11 17  1  0
 17 18  2  0
  6  2  1  0
 15 10  1  0
 17  5  1  0
M  END
>  <identifier>  (377) 
CNP0230494.2

>  <canonical_smiles>  (377) 
CC1=COC2=C1[C@](C)(O)C1=C(CCC[C@@H]1C)C2=O

>  <standard_inchi>  (377) 
InChI=1S/C15H18O3/c1-8-5-4-6-10-11(8)15(3,17)12-9(2)7-18-14(12)13(10)16/h7-8,17H,4-6H2,1-3H3/t8-,15+/m0/s1

>  <standard_inchi_key>  (377) 
VNNQNPHIASWXBS-VXJOIVPMSA-N

>  <name>  (377) 
Cacalone

>  <iupac_name>  (377) 
(4~{R},5~{S})-4-hydroxy-3,4,5-trimethyl-5,6,7,8-tetrahydrobenzo[f]benzofuran-9-one

>  <annotation_level>  (377) 
5

>  <total_atom_count>  (377) 
36

>  <heavy_atom_count>  (377) 
18

>  <molecular_weight>  (377) 
246.31

>  <exact_molecular_weight>  (377) 
246.12559

>  <molecular_formula>  (377) 
C15H18O3

>  <alogp>  (377) 
3.11

>  <topological_polar_surface_area>  (377) 
50.44

>  <rotatable_bond_count>  (377) 
0

>  <hydrogen_bond_acceptors>  (377) 
3

>  <hydrogen_bond_donors>  (377) 
1

>  <hydrogen_bond_acceptors_lipinski>  (377) 
3

>  <hydrogen_bond_donors_lipinski>  (377) 
1

>  <lipinski_rule_of_five_violations>  (377) 
0

>  <aromatic_rings_count>  (377) 
1

>  <qed_drug_likeliness>  (377) 
0.76

>  <formal_charge>  (377) 
0

>  <fractioncsp3>  (377) 
0.53

>  <number_of_minimal_rings>  (377) 
3

>  <van_der_walls_volume>  (377) 
230.27

>  <contains_sugar>  (377) 
False

>  <contains_ring_sugars>  (377) 
False

>  <contains_linear_sugars>  (377) 
False

>  <murcko_framework>  (377) 
o1ccc2c1CC3=C(C2)CCCC3

>  <np_likeness>  (377) 
2.31

>  <chemical_class>  (377) 
Prenol lipids

>  <chemical_sub_class>  (377) 
Sesquiterpenoids

>  <chemical_super_class>  (377) 
Lipids and lipid-like molecules

>  <direct_parent_classification>  (377) 
Eremophilane, 8,9-secoeremophilane and furoeremophilane sesquiterpenoids

>  <np_classifier_pathway>  (377) 
Terpenoids

>  <np_classifier_superclass>  (377) 
Sesquiterpenoids

>  <np_classifier_class>  (377) 
nan

>  <np_classifier_is_glycoside>  (377) 
False

>  <organisms>  (377) 
Artemisia sylvatica|Cacalia decomposita|Flourensia cernua|Lobaria isidiosa|Marinobacter hydrocarbonoclasticus|Psacalium decompositum|Scytonema hofmannii

>  <collections>  (377) 
BIOFACQUIM|KNApSaCK|Latin America dataset|NPASS|NPEdia|Super Natural II

>  <dois>  (377) 
10.1016/j.jep.2005.09.039|10.1021/np990023v

>  <synonyms>  (377) 
(4R|5S)-4-hydroxy-3|4|5-trimethyl-5|6|7|8-tetrahydrobenzof1benzofuran-9-one|(4R|5S)-4-hydroxy-3|4|5-trimethyl-5|6|7|8-tetrahydronaphtho2|3-bfuran-9(4H)-one|26294-92-8|CHEMBL450368|SCHEMBL8673788|InChI=1\/C15H18O3\/c1-8-5-4-6-10-11(8)15(3|17)12-9(2)7-18-14(12)13(10)16\/h7-8|17H|4-6H2|1-3H3\/t8-|15+\/m0\/s|naphtho2|3-bfuran-9(4H)-one| 5|6|7|8-tetrahydro-4-hydroxy-3|4|5-trimethyl-| (4R|5S)-|Cacalone

>  <cas>  (377) 
26294-92-8

$$$$

     RDKit          2D

 37 40  0  0  0  0  0  0  0  0999 V2000
    2.7456   -2.5830    0.0000 C   0  0  0  0  0  0  0  0  0  0  0  0
    1.2651   -2.3418    0.0000 C   0  0  0  0  0  0  0  0  0  0  0  0
    0.6253   -3.6985    0.0000 O   0  0  0  0  0  0  0  0  0  0  0  0
    0.4101   -1.1094    0.0000 O   0  0  0  0  0  0  0  0  0  0  0  0
   -1.0848   -1.2337    0.0000 C   0  0  0  0  0  0  0  0  0  0  0  0
   -1.2091    0.2612    0.0000 C   0  0  0  0  0  0  0  0  0  0  0  0
   -2.5658    0.9010    0.0000 O   0  0  0  0  0  0  0  0  0  0  0  0
   -3.7982    0.0459    0.0000 C   0  0  0  0  0  0  0  0  0  0  0  0
   -3.6739   -1.4489    0.0000 O   0  0  0  0  0  0  0  0  0  0  0  0
   -5.1549    0.6857    0.0000 C   0  0  0  0  0  0  0  0  0  0  0  0
   -6.3874   -0.1693    0.0000 C   0  0  0  0  0  0  0  0  0  0  0  0
   -7.7441    0.4705    0.0000 C   0  0  0  0  0  0  0  0  0  0  0  0
   -6.2631   -1.6642    0.0000 C   0  0  0  0  0  0  0  0  0  0  0  0
   -5.2792    2.1806    0.0000 N   0  0  0  0  0  0  0  0  0  0  0  0
   -6.6359    2.8204    0.0000 C   0  0  0  0  0  0  0  0  0  0  0  0
   -4.0467    3.0356    0.0000 C   0  0  0  0  0  0  0  0  0  0  0  0
    0.0234    1.1162    0.0000 C   0  0  0  0  0  0  0  0  0  0  0  0
   -0.1009    2.6111    0.0000 C   0  0  0  0  0  0  0  0  0  0  0  0
    1.3801    0.4764    0.0000 C   0  0  0  0  0  0  0  0  0  0  0  0
    1.1445    1.9578    0.0000 O   0  0  0  0  0  0  0  0  0  0  0  0
    2.4713    1.5056    0.0000 C   0  0  0  0  0  0  0  0  0  0  0  0
    2.2136    2.9833    0.0000 C   0  0  0  0  0  0  0  0  0  0  0  0
    3.5393    3.6851    0.0000 C   0  0  0  0  0  0  0  0  0  0  0  0
    3.7507    5.1701    0.0000 C   0  0  0  0  0  0  0  0  0  0  0  0
    4.6164    2.6411    0.0000 C   0  0  0  0  0  0  0  0  0  0  0  0
    6.0940    2.8989    0.0000 O   0  0  0  0  0  0  0  0  0  0  0  0
    3.9563    1.2941    0.0000 C   0  0  0  0  0  0  0  0  0  0  0  0
    4.7169    0.0012    0.0000 C   0  0  0  0  0  0  0  0  0  0  0  0
    4.1803   -1.3995    0.0000 C   0  0  0  0  0  0  0  0  0  0  0  0
    5.2094   -2.4907    0.0000 C   0  0  0  0  0  0  0  0  0  0  0  0
    4.7790   -3.9277    0.0000 O   0  0  0  0  0  0  0  0  0  0  0  0
    2.7505   -1.8533    0.0000 C   0  0  0  0  0  0  0  0  0  0  0  0
    1.5044   -1.0184    0.0000 C   0  0  0  0  0  0  0  0  0  0  0  0
    0.2719   -1.8735    0.0000 C   0  0  0  0  0  0  0  0  0  0  0  0
   -0.9605   -2.7285    0.0000 C   0  0  0  0  0  0  0  0  0  0  0  0
   -0.3325   -4.0907    0.0000 C   0  0  0  0  0  0  0  0  0  0  0  0
   -2.4111   -3.1105    0.0000 C   0  0  0  0  0  0  0  0  0  0  0  0
  1  2  1  0
  2  3  2  0
  2  4  1  0
  5  4  1  1
  5  6  1  0
  6  7  1  6
  7  8  1  0
  8  9  2  0
  8 10  1  0
 10 11  1  0
 11 12  1  0
 11 13  1  0
 10 14  1  0
 14 15  1  0
 14 16  1  0
  6 17  1  0
 17 18  1  1
 17 19  1  0
 19 20  1  1
 19 21  1  0
 21 22  1  6
 22 23  2  0
 23 24  1  0
 23 25  1  0
 25 26  2  0
 25 27  1  0
 27 28  1  6
 28 29  1  0
 29 30  1  0
 30 31  1  0
 29 32  2  0
 33 32  1  1
 33 34  1  0
 34 35  1  6
 35 36  1  0
 35 37  1  0
 34  5  1  0
 35  5  1  0
 33 19  1  0
 27 21  1  0
M  END
>  <identifier>  (378) 
CNP0197597.1

>  <canonical_smiles>  (378) 
CC(=O)O[C@@]12[C@H](OC(=O)C(C(C)C)N(C)C)[C@@H](C)[C@]3(O)[C@@H]4C=C(C)C(=O)[C@@H]4CC(CO)=C[C@H]3[C@@H]1C2(C)C

>  <standard_inchi>  (378) 
InChI=1S/C29H43NO7/c1-14(2)22(30(8)9)26(34)36-25-16(4)28(35)20-10-15(3)23(33)19(20)11-18(13-31)12-21(28)24-27(6,7)29(24,25)37-17(5)32/h10,12,14,16,19-22,24-25,31,35H,11,13H2,1-9H3/t16-,19-,20-,21+,22?,24-,25-,28+,29-/m1/s1

>  <standard_inchi_key>  (378) 
VCEYVQJHAJGATA-RLEZANQDSA-N

>  <name>  (378) 
nan

>  <iupac_name>  (378) 
[(1~{R},2~{R},6~{R},10~{S},11~{R},13~{S},14~{R},15~{R})-13-acetoxy-1-hydroxy-8-(hydroxymethyl)-4,12,12,15-tetramethyl-5-oxo-14-tetracyclo[8.5.0.0^{2,6}.0^{11,13}]pentadeca-3,8-dienyl] 2-(dimethylamino)-3-methyl-butanoate

>  <annotation_level>  (378) 
5

>  <total_atom_count>  (378) 
80

>  <heavy_atom_count>  (378) 
37

>  <molecular_weight>  (378) 
517.66

>  <exact_molecular_weight>  (378) 
517.30395

>  <molecular_formula>  (378) 
C29H43NO7

>  <alogp>  (378) 
2.52

>  <topological_polar_surface_area>  (378) 
113.37

>  <rotatable_bond_count>  (378) 
6

>  <hydrogen_bond_acceptors>  (378) 
8

>  <hydrogen_bond_donors>  (378) 
2

>  <hydrogen_bond_acceptors_lipinski>  (378) 
8

>  <hydrogen_bond_donors_lipinski>  (378) 
2

>  <lipinski_rule_of_five_violations>  (378) 
1

>  <aromatic_rings_count>  (378) 
0

>  <qed_drug_likeliness>  (378) 
0.41

>  <formal_charge>  (378) 
0

>  <fractioncsp3>  (378) 
0.76

>  <number_of_minimal_rings>  (378) 
4

>  <van_der_walls_volume>  (378) 
491.21

>  <contains_sugar>  (378) 
False

>  <contains_ring_sugars>  (378) 
False

>  <contains_linear_sugars>  (378) 
False

>  <murcko_framework>  (378) 
C1=CC2C(C1)CC=CC3C2CCC4CC34

>  <np_likeness>  (378) 
2.79

>  <chemical_class>  (378) 
Prenol lipids

>  <chemical_sub_class>  (378) 
Diterpenoids

>  <chemical_super_class>  (378) 
Lipids and lipid-like molecules

>  <direct_parent_classification>  (378) 
Tigliane and ingenane diterpenoids

>  <np_classifier_pathway>  (378) 
Terpenoids

>  <np_classifier_superclass>  (378) 
Diterpenoids

>  <np_classifier_class>  (378) 
Tigliane diterpenoids

>  <np_classifier_is_glycoside>  (378) 
False

>  <organisms>  (378) 
Croton ciliatoglanduliferus

>  <collections>  (378) 
BIOFACQUIM|Latin America dataset

>  <dois>  (378) 
10.1021/np0504311

>  <synonyms>  (378) 
12-O-(2R)-N N-dimethyl-3-methylbutanoyl-4-deoxyphorbol 13-acetate

>  <cas>  (378) 
nan

$$$$

     RDKit          2D

 38 41  0  0  0  0  0  0  0  0999 V2000
    2.5474   -2.6717    0.0000 C   0  0  0  0  0  0  0  0  0  0  0  0
    1.0722   -2.4001    0.0000 C   0  0  0  0  0  0  0  0  0  0  0  0
    0.4045   -3.7433    0.0000 O   0  0  0  0  0  0  0  0  0  0  0  0
    0.2428   -1.1502    0.0000 O   0  0  0  0  0  0  0  0  0  0  0  0
   -1.2543   -1.2436    0.0000 C   0  0  0  0  0  0  0  0  0  0  0  0
   -1.3477    0.2535    0.0000 C   0  0  0  0  0  0  0  0  0  0  0  0
   -2.6909    0.9212    0.0000 O   0  0  0  0  0  0  0  0  0  0  0  0
   -3.9407    0.0918    0.0000 C   0  0  0  0  0  0  0  0  0  0  0  0
   -3.8473   -1.4053    0.0000 O   0  0  0  0  0  0  0  0  0  0  0  0
   -5.2839    0.7595    0.0000 C   0  0  0  0  0  0  0  0  0  0  0  0
   -6.5337   -0.0699    0.0000 C   0  0  0  0  0  0  0  0  0  0  0  0
   -7.8769    0.5978    0.0000 C   0  0  0  0  0  0  0  0  0  0  0  0
   -6.4404   -1.5670    0.0000 C   0  0  0  0  0  0  0  0  0  0  0  0
   -5.3773    2.2566    0.0000 N   0  0  0  0  0  0  0  0  0  0  0  0
   -6.7205    2.9243    0.0000 C   0  0  0  0  0  0  0  0  0  0  0  0
   -4.1274    3.0860    0.0000 C   0  0  0  0  0  0  0  0  0  0  0  0
   -0.0978    1.0829    0.0000 C   0  0  0  0  0  0  0  0  0  0  0  0
   -0.1912    2.5800    0.0000 C   0  0  0  0  0  0  0  0  0  0  0  0
    1.2454    0.4152    0.0000 C   0  0  0  0  0  0  0  0  0  0  0  0
    1.0404    1.9011    0.0000 O   0  0  0  0  0  0  0  0  0  0  0  0
    1.3387   -1.0819    0.0000 C   0  0  0  0  0  0  0  0  0  0  0  0
    2.5674   -1.9423    0.0000 C   0  0  0  0  0  0  0  0  0  0  0  0
    4.0062   -1.5181    0.0000 C   0  0  0  0  0  0  0  0  0  0  0  0
    5.0126   -2.6304    0.0000 C   0  0  0  0  0  0  0  0  0  0  0  0
    4.5526   -4.0581    0.0000 O   0  0  0  0  0  0  0  0  0  0  0  0
    4.5716   -0.1288    0.0000 C   0  0  0  0  0  0  0  0  0  0  0  0
    3.8380    1.1795    0.0000 C   0  0  0  0  0  0  0  0  0  0  0  0
    5.3377    1.2056    0.0000 O   0  0  0  0  0  0  0  0  0  0  0  0
    4.5257    2.5126    0.0000 C   0  0  0  0  0  0  0  0  0  0  0  0
    6.0084    2.7398    0.0000 O   0  0  0  0  0  0  0  0  0  0  0  0
    3.4704    3.5786    0.0000 C   0  0  0  0  0  0  0  0  0  0  0  0
    3.7125    5.0589    0.0000 C   0  0  0  0  0  0  0  0  0  0  0  0
    2.1304    2.9043    0.0000 C   0  0  0  0  0  0  0  0  0  0  0  0
    2.3576    1.4216    0.0000 C   0  0  0  0  0  0  0  0  0  0  0  0
    0.0889   -1.9113    0.0000 C   0  0  0  0  0  0  0  0  0  0  0  0
   -1.1609   -2.7407    0.0000 C   0  0  0  0  0  0  0  0  0  0  0  0
   -0.5612   -4.1155    0.0000 C   0  0  0  0  0  0  0  0  0  0  0  0
   -2.6191   -3.0926    0.0000 C   0  0  0  0  0  0  0  0  0  0  0  0
  1  2  1  0
  2  3  2  0
  2  4  1  0
  5  4  1  1
  5  6  1  0
  6  7  1  6
  7  8  1  0
  8  9  2  0
  8 10  1  0
 10 11  1  1
 11 12  1  0
 11 13  1  0
 10 14  1  0
 14 15  1  0
 14 16  1  0
  6 17  1  0
 17 18  1  1
 17 19  1  0
 19 20  1  1
 19 21  1  0
 21 22  1  1
 22 23  2  0
 23 24  1  0
 24 25  1  0
 23 26  1  0
 26 27  1  0
 27 28  1  1
 27 29  1  0
 29 30  2  0
 29 31  1  0
 31 32  1  0
 31 33  2  0
 34 33  1  6
 21 35  1  0
 35 36  1  6
 36 37  1  0
 36 38  1  0
 35  5  1  0
 36  5  1  0
 34 19  1  0
 34 27  1  0
M  END
>  <identifier>  (379) 
CNP0320994.1

>  <canonical_smiles>  (379) 
CC(=O)O[C@@]12[C@H](OC(=O)[C@@H](C(C)C)N(C)C)[C@@H](C)[C@@]3(O)[C@@H](C=C(CO)C[C@@]4(O)C(=O)C(C)=C[C@@H]34)[C@@H]1C2(C)C

>  <standard_inchi>  (379) 
InChI=1S/C29H43NO8/c1-14(2)21(30(8)9)25(34)37-24-16(4)28(36)19(22-26(6,7)29(22,24)38-17(5)32)11-18(13-31)12-27(35)20(28)10-15(3)23(27)33/h10-11,14,16,19-22,24,31,35-36H,12-13H2,1-9H3/t16-,19+,20-,21-,22-,24-,27+,28-,29-/m1/s1

>  <standard_inchi_key>  (379) 
NNQZZZKSYAIGAN-XUSXYMRCSA-N

>  <name>  (379) 
[(1S,2S,6S,10S,11R,13S,14R,15R)-13-acetyloxy-1,6-dihydroxy-8-(hydroxymethyl)-4,12,12,15-tetramethyl-5-oxo-14-tetracyclo[8.5.0.02,6.011,13]pentadeca-3,8-dienyl] (2R)-2-(dimethylamino)-3-methylbutanoate

>  <iupac_name>  (379) 
[(1~{S},2~{S},6~{S},10~{S},11~{R},13~{S},14~{R},15~{R})-13-acetoxy-1,6-dihydroxy-8-(hydroxymethyl)-4,12,12,15-tetramethyl-5-oxo-14-tetracyclo[8.5.0.0^{2,6}.0^{11,13}]pentadeca-3,8-dienyl] (2~{R})-2-(dimethylamino)-3-methyl-butanoate

>  <annotation_level>  (379) 
5

>  <total_atom_count>  (379) 
81

>  <heavy_atom_count>  (379) 
38

>  <molecular_weight>  (379) 
533.66

>  <exact_molecular_weight>  (379) 
533.29887

>  <molecular_formula>  (379) 
C29H43NO8

>  <alogp>  (379) 
1.64

>  <topological_polar_surface_area>  (379) 
133.60

>  <rotatable_bond_count>  (379) 
6

>  <hydrogen_bond_acceptors>  (379) 
9

>  <hydrogen_bond_donors>  (379) 
3

>  <hydrogen_bond_acceptors_lipinski>  (379) 
9

>  <hydrogen_bond_donors_lipinski>  (379) 
3

>  <lipinski_rule_of_five_violations>  (379) 
1

>  <aromatic_rings_count>  (379) 
0

>  <qed_drug_likeliness>  (379) 
0.34

>  <formal_charge>  (379) 
0

>  <fractioncsp3>  (379) 
0.76

>  <number_of_minimal_rings>  (379) 
4

>  <van_der_walls_volume>  (379) 
500.48

>  <contains_sugar>  (379) 
False

>  <contains_ring_sugars>  (379) 
False

>  <contains_linear_sugars>  (379) 
False

>  <murcko_framework>  (379) 
C1=CC2C(C1)CC=CC3C2CCC4CC34

>  <np_likeness>  (379) 
2.77

>  <chemical_class>  (379) 
Prenol lipids

>  <chemical_sub_class>  (379) 
Diterpenoids

>  <chemical_super_class>  (379) 
Lipids and lipid-like molecules

>  <direct_parent_classification>  (379) 
Phorbol esters

>  <np_classifier_pathway>  (379) 
Terpenoids

>  <np_classifier_superclass>  (379) 
Diterpenoids

>  <np_classifier_class>  (379) 
Tetracyclic diterpenoids

>  <np_classifier_is_glycoside>  (379) 
False

>  <organisms>  (379) 
Croton ciliatoglandulifer|Croton ciliatoglanduliferus

>  <collections>  (379) 
BIOFACQUIM|Latin America dataset|NPASS|Super Natural II

>  <dois>  (379) 
10.1021/np0504311

>  <synonyms>  (379) 
CHEMBL502799|BDBM50269235|12-O-(2R)-N|N-dimethyl-3-methylbutanoylphorbol 13-acetate

>  <cas>  (379) 
nan

$$$$

     RDKit          2D

 31 34  0  0  0  0  0  0  0  0999 V2000
    1.6084    4.5487    0.0000 C   0  0  0  0  0  0  0  0  0  0  0  0
    2.1786    3.1613    0.0000 C   0  0  0  0  0  0  0  0  0  0  0  0
    3.6652    2.9615    0.0000 C   0  0  0  0  0  0  0  0  0  0  0  0
    1.2622    1.9738    0.0000 C   0  0  0  0  0  0  0  0  0  0  0  0
   -0.1101    2.5794    0.0000 C   0  0  0  0  0  0  0  0  0  0  0  0
   -1.6067    2.4779    0.0000 C   0  0  0  0  0  0  0  0  0  0  0  0
   -2.9481    3.1491    0.0000 C   0  0  0  0  0  0  0  0  0  0  0  0
   -3.1936    4.6289    0.0000 C   0  0  0  0  0  0  0  0  0  0  0  0
   -2.0348    5.5814    0.0000 O   0  0  0  0  0  0  0  0  0  0  0  0
   -4.0010    2.0807    0.0000 C   0  0  0  0  0  0  0  0  0  0  0  0
   -3.6512    0.4032    0.0000 C   0  0  0  0  0  0  0  0  0  0  0  0
   -2.8847    1.6925    0.0000 O   0  0  0  0  0  0  0  0  0  0  0  0
   -3.7309   -1.0947    0.0000 C   0  0  0  0  0  0  0  0  0  0  0  0
   -5.2043   -1.3758    0.0000 O   0  0  0  0  0  0  0  0  0  0  0  0
   -3.1052   -2.4580    0.0000 C   0  0  0  0  0  0  0  0  0  0  0  0
   -3.5410   -3.8933    0.0000 C   0  0  0  0  0  0  0  0  0  0  0  0
   -4.6018   -2.5595    0.0000 O   0  0  0  0  0  0  0  0  0  0  0  0
   -1.9177   -3.3744    0.0000 C   0  0  0  0  0  0  0  0  0  0  0  0
   -0.4404   -3.6340    0.0000 C   0  0  0  0  0  0  0  0  0  0  0  0
    0.8129   -2.8591    0.0000 O   0  0  0  0  0  0  0  0  0  0  0  0
    0.7644   -2.8985    0.0000 C   0  0  0  0  0  0  0  0  0  0  0  0
    3.3660   -4.3936    0.0000 O   0  0  0  0  0  0  0  0  0  0  0  0
    2.0413   -2.1089    0.0000 C   0  0  0  0  0  0  0  0  0  0  0  0
    2.4401   -3.5549    0.0000 O   0  0  0  0  0  0  0  0  0  0  0  0
    0.9884   -3.1773    0.0000 C   0  0  0  0  0  0  0  0  0  0  0  0
    2.4770   -0.6736    0.0000 C   0  0  0  0  0  0  0  0  0  0  0  0
    3.9749   -0.7532    0.0000 O   0  0  0  0  0  0  0  0  0  0  0  0
    4.7928    0.5042    0.0000 C   0  0  0  0  0  0  0  0  0  0  0  0
    6.2907    0.4246    0.0000 C   0  0  0  0  0  0  0  0  0  0  0  0
    4.1128    1.8412    0.0000 O   0  0  0  0  0  0  0  0  0  0  0  0
    2.1959    0.7999    0.0000 C   0  0  0  0  0  0  0  0  0  0  0  0
  1  2  2  0
  2  3  1  0
  4  2  1  6
  4  5  1  0
  5  6  1  0
  6  7  2  0
  7  8  1  0
  8  9  2  0
  7 10  1  0
 10 11  2  0
 11 12  1  0
 11 13  1  0
 13 14  1  6
 13 15  1  0
 15 16  1  1
 15 17  1  0
 15 18  1  0
 19 18  1  6
 19 20  1  0
 20 21  1  0
 21 22  2  0
 21 23  1  0
 23 24  1  1
 25 24  1  1
 23 26  1  0
 26 27  1  1
 27 28  1  0
 28 29  1  0
 28 30  2  0
 26 31  1  0
 31  4  1  0
 12  6  1  0
 25 19  1  0
 25 23  1  0
M  END
>  <identifier>  (380) 
CNP0296271.1

>  <canonical_smiles>  (380) 
C=C(C)[C@H]1CC2=C(C=O)C=C(O2)[C@@H](O)[C@@](C)(O)C[C@@H]2OC(=O)[C@]3(O[C@@H]23)[C@H](OC(C)=O)C1

>  <standard_inchi>  (380) 
InChI=1S/C22H26O9/c1-10(2)12-5-14-13(9-23)6-15(29-14)18(25)21(4,27)8-16-19-22(31-19,20(26)30-16)17(7-12)28-11(3)24/h6,9,12,16-19,25,27H,1,5,7-8H2,2-4H3/t12-,16-,17+,18+,19-,21-,22-/m0/s1

>  <standard_inchi_key>  (380) 
HDOFLMSTYCZGEX-AELICHRDSA-N

>  <name>  (380) 
lophodiol A

>  <iupac_name>  (380) 
[(1~{S},2~{R},4~{R},10~{S},11~{S},13~{S},14~{S})-7-formyl-10,11-dihydroxy-4-isopropenyl-11-methyl-16-oxo-15,17,18-trioxatetracyclo[11.2.2.1^{6,9}.0^{1,14}]octadeca-6,8-dien-2-yl] acetate

>  <annotation_level>  (380) 
5

>  <total_atom_count>  (380) 
57

>  <heavy_atom_count>  (380) 
31

>  <molecular_weight>  (380) 
434.44

>  <exact_molecular_weight>  (380) 
434.15768

>  <molecular_formula>  (380) 
C22H26O9

>  <alogp>  (380) 
1.40

>  <topological_polar_surface_area>  (380) 
135.80

>  <rotatable_bond_count>  (380) 
3

>  <hydrogen_bond_acceptors>  (380) 
9

>  <hydrogen_bond_donors>  (380) 
2

>  <hydrogen_bond_acceptors_lipinski>  (380) 
9

>  <hydrogen_bond_donors_lipinski>  (380) 
2

>  <lipinski_rule_of_five_violations>  (380) 
0

>  <aromatic_rings_count>  (380) 
1

>  <qed_drug_likeliness>  (380) 
0.31

>  <formal_charge>  (380) 
0

>  <fractioncsp3>  (380) 
0.59

>  <number_of_minimal_rings>  (380) 
4

>  <van_der_walls_volume>  (380) 
379.06

>  <contains_sugar>  (380) 
False

>  <contains_ring_sugars>  (380) 
False

>  <contains_linear_sugars>  (380) 
False

>  <murcko_framework>  (380) 
o1c2ccc1CCCC3OCC4(OC34)CCCC2

>  <np_likeness>  (380) 
3.21

>  <chemical_class>  (380) 
Organooxygen compounds

>  <chemical_sub_class>  (380) 
Carbonyl compounds

>  <chemical_super_class>  (380) 
Organic oxygen compounds

>  <direct_parent_classification>  (380) 
Aryl-aldehydes

>  <np_classifier_pathway>  (380) 
Terpenoids

>  <np_classifier_superclass>  (380) 
Diterpenoids

>  <np_classifier_class>  (380) 
Cembrane diterpenoids

>  <np_classifier_is_glycoside>  (380) 
False

>  <organisms>  (380) 
Leptogorgia peruana|Lophogorgia peruana

>  <collections>  (380) 
BIOFACQUIM|CMNPD|Latin America dataset

>  <dois>  (380) 
10.1021/np060388x|10.1039/b701534h

>  <synonyms>  (380) 
CHEMBL518107|Lophodiol A

>  <cas>  (380) 
nan

$$$$

     RDKit          2D

 35 39  0  0  0  0  0  0  0  0999 V2000
    0.6513   -4.3575    0.0000 C   0  0  0  0  0  0  0  0  0  0  0  0
   -0.0857   -3.0511    0.0000 C   0  0  0  0  0  0  0  0  0  0  0  0
    0.6773   -1.7596    0.0000 C   0  0  0  0  0  0  0  0  0  0  0  0
    1.9688   -2.5225    0.0000 C   0  0  0  0  0  0  0  0  0  0  0  0
   -0.6167   -1.3746    0.0000 C   0  0  0  0  0  0  0  0  0  0  0  0
    1.4402   -0.4681    0.0000 C   0  0  0  0  0  0  0  0  0  0  0  0
    2.4327   -1.5928    0.0000 N   0  0  0  0  0  0  0  0  0  0  0  0
    3.8091   -0.9964    0.0000 C   0  0  0  0  0  0  0  0  0  0  0  0
    5.1732   -1.6202    0.0000 C   0  0  0  0  0  0  0  0  0  0  0  0
    5.3151   -3.1134    0.0000 O   0  0  0  0  0  0  0  0  0  0  0  0
    6.3955   -0.7506    0.0000 C   0  0  0  0  0  0  0  0  0  0  0  0
    6.2536    0.7426    0.0000 C   0  0  0  0  0  0  0  0  0  0  0  0
    4.8895    1.3664    0.0000 C   0  0  0  0  0  0  0  0  0  0  0  0
    3.6672    0.4969    0.0000 C   0  0  0  0  0  0  0  0  0  0  0  0
    2.2031    0.8234    0.0000 C   0  0  0  0  0  0  0  0  0  0  0  0
    2.9661    2.1149    0.0000 O   0  0  0  0  0  0  0  0  0  0  0  0
    2.2291    3.4213    0.0000 C   0  0  0  0  0  0  0  0  0  0  0  0
    2.9920    4.7128    0.0000 C   0  0  0  0  0  0  0  0  0  0  0  0
    0.7292    3.4363    0.0000 O   0  0  0  0  0  0  0  0  0  0  0  0
    1.2106    1.9481    0.0000 C   0  0  0  0  0  0  0  0  0  0  0  0
   -0.1657    1.3517    0.0000 C   0  0  0  0  0  0  0  0  0  0  0  0
   -1.5299    1.9754    0.0000 C   0  0  0  0  0  0  0  0  0  0  0  0
   -1.6718    3.4687    0.0000 O   0  0  0  0  0  0  0  0  0  0  0  0
   -2.7521    1.1059    0.0000 O   0  0  0  0  0  0  0  0  0  0  0  0
   -2.6102   -0.3874    0.0000 C   0  0  0  0  0  0  0  0  0  0  0  0
   -3.8325   -1.2569    0.0000 C   0  0  0  0  0  0  0  0  0  0  0  0
   -5.1967   -0.6331    0.0000 C   0  0  0  0  0  0  0  0  0  0  0  0
   -5.3386    0.8602    0.0000 C   0  0  0  0  0  0  0  0  0  0  0  0
   -6.7027    1.4839    0.0000 C   0  0  0  0  0  0  0  0  0  0  0  0
   -7.9250    0.6144    0.0000 C   0  0  0  0  0  0  0  0  0  0  0  0
   -7.7831   -0.8789    0.0000 C   0  0  0  0  0  0  0  0  0  0  0  0
   -6.4189   -1.5026    0.0000 C   0  0  0  0  0  0  0  0  0  0  0  0
   -1.2461   -1.0111    0.0000 C   0  0  0  0  0  0  0  0  0  0  0  0
   -1.1042   -2.5044    0.0000 O   0  0  0  0  0  0  0  0  0  0  0  0
   -0.0238   -0.1416    0.0000 N   0  0  0  0  0  0  0  0  0  0  0  0
  1  2  2  0
  2  3  1  0
  3  4  1  0
  3  5  1  0
  6  3  1  1
  6  7  1  0
  7  8  1  0
  8  9  2  0
  9 10  1  0
  9 11  1  0
 11 12  2  0
 12 13  1  0
 13 14  2  0
 14 15  1  0
 15 16  1  1
 16 17  1  0
 17 18  1  0
 17 19  2  0
 15 20  1  0
 21 20  1  6
 21 22  1  0
 22 23  2  0
 22 24  1  0
 24 25  1  0
 25 26  1  6
 26 27  1  0
 27 28  2  0
 28 29  1  0
 29 30  2  0
 30 31  1  0
 31 32  2  0
 25 33  1  0
 33 34  2  0
 33 35  1  0
 15  6  1  0
 35 21  1  0
 35  6  1  0
 14  8  1  0
 32 27  1  0
M  END
>  <identifier>  (381) 
CNP0080281.1

>  <canonical_smiles>  (381) 
C=CC(C)(C)[C@]12NC3=C(O)C=CC=C3[C@@]1(OC(C)=O)C[C@H]1C(=O)O[C@@H](CC3=CC=CC=C3)C(=O)N12

>  <standard_inchi>  (381) 
InChI=1S/C27H28N2O6/c1-5-25(3,4)27-26(35-16(2)30,18-12-9-13-20(31)22(18)28-27)15-19-24(33)34-21(23(32)29(19)27)14-17-10-7-6-8-11-17/h5-13,19,21,28,31H,1,14-15H2,2-4H3/t19-,21-,26-,27+/m0/s1

>  <standard_inchi_key>  (381) 
JLUYABBECFTSKK-AGEKVHLVSA-N

>  <name>  (381) 
nan

>  <iupac_name>  (381) 
[(1~{R},4~{S},7~{S},9~{S})-4-benzyl-1-(1,1-dimethylallyl)-14-hydroxy-3,6-dioxo-5-oxa-2,16-diazatetracyclo[7.7.0.0^{2,7}.0^{10,15}]hexadeca-10,12,14-trien-9-yl] acetate

>  <annotation_level>  (381) 
5

>  <total_atom_count>  (381) 
63

>  <heavy_atom_count>  (381) 
35

>  <molecular_weight>  (381) 
476.53

>  <exact_molecular_weight>  (381) 
476.19474

>  <molecular_formula>  (381) 
C27H28N2O6

>  <alogp>  (381) 
3.25

>  <topological_polar_surface_area>  (381) 
105.17

>  <rotatable_bond_count>  (381) 
5

>  <hydrogen_bond_acceptors>  (381) 
7

>  <hydrogen_bond_donors>  (381) 
2

>  <hydrogen_bond_acceptors_lipinski>  (381) 
7

>  <hydrogen_bond_donors_lipinski>  (381) 
2

>  <lipinski_rule_of_five_violations>  (381) 
0

>  <aromatic_rings_count>  (381) 
2

>  <qed_drug_likeliness>  (381) 
0.39

>  <formal_charge>  (381) 
0

>  <fractioncsp3>  (381) 
0.37

>  <number_of_minimal_rings>  (381) 
5

>  <van_der_walls_volume>  (381) 
422.58

>  <contains_sugar>  (381) 
False

>  <contains_ring_sugars>  (381) 
False

>  <contains_linear_sugars>  (381) 
False

>  <murcko_framework>  (381) 
O1CC2N(CC1Cc3ccccc3)C4Nc5ccccc5C4C2

>  <np_likeness>  (381) 
1.48

>  <chemical_class>  (381) 
Peptidomimetics

>  <chemical_sub_class>  (381) 
Hybrid peptides

>  <chemical_super_class>  (381) 
Organic acids and derivatives

>  <direct_parent_classification>  (381) 
Hybrid peptides

>  <np_classifier_pathway>  (381) 
Alkaloids

>  <np_classifier_superclass>  (381) 
Peptide alkaloids

>  <np_classifier_class>  (381) 
Indole diketopiperazine alkaloids (L-Trp, L-Trp)

>  <np_classifier_is_glycoside>  (381) 
False

>  <organisms>  (381) 
Aspergillus sp. MEXU 27860

>  <collections>  (381) 
BIOFACQUIM|Latin America dataset

>  <dois>  (381) 
10.1021/acs.jnatprod.7b00331

>  <synonyms>  (381) 
PF1233 A

>  <cas>  (381) 
nan

$$$$

     RDKit          2D

 31 36  0  0  0  0  0  0  0  0999 V2000
   -5.8119    2.0081    0.0000 C   0  0  0  0  0  0  0  0  0  0  0  0
   -4.3538    1.6560    0.0000 C   0  0  0  0  0  0  0  0  0  0  0  0
   -3.3198    2.7426    0.0000 O   0  0  0  0  0  0  0  0  0  0  0  0
   -3.9297    0.2172    0.0000 O   0  0  0  0  0  0  0  0  0  0  0  0
   -2.4717   -0.1350    0.0000 C   0  0  0  0  0  0  0  0  0  0  0  0
   -1.7808    1.1964    0.0000 C   0  0  0  0  0  0  0  0  0  0  0  0
   -0.5503    2.0543    0.0000 C   0  0  0  0  0  0  0  0  0  0  0  0
   -1.0887    3.4543    0.0000 C   0  0  0  0  0  0  0  0  0  0  0  0
   -2.5610    3.1671    0.0000 C   0  0  0  0  0  0  0  0  0  0  0  0
   -1.1159    4.9540    0.0000 C   0  0  0  0  0  0  0  0  0  0  0  0
    0.1965    4.2277    0.0000 O   0  0  0  0  0  0  0  0  0  0  0  0
    0.9379    2.2420    0.0000 C   0  0  0  0  0  0  0  0  0  0  0  0
    2.3429    1.7167    0.0000 C   0  0  0  0  0  0  0  0  0  0  0  0
    3.8203    1.9761    0.0000 C   0  0  0  0  0  0  0  0  0  0  0  0
    4.4788    3.3238    0.0000 C   0  0  0  0  0  0  0  0  0  0  0  0
    5.9752    3.4274    0.0000 O   0  0  0  0  0  0  0  0  0  0  0  0
    4.5236    0.6512    0.0000 C   0  0  0  0  0  0  0  0  0  0  0  0
    3.7086   -0.8562    0.0000 C   0  0  0  0  0  0  0  0  0  0  0  0
    3.3428    0.5985    0.0000 O   0  0  0  0  0  0  0  0  0  0  0  0
    3.3564   -2.3142    0.0000 C   0  0  0  0  0  0  0  0  0  0  0  0
    3.8380   -3.7348    0.0000 O   0  0  0  0  0  0  0  0  0  0  0  0
    2.3670   -3.4416    0.0000 C   0  0  0  0  0  0  0  0  0  0  0  0
    2.4947   -4.9362    0.0000 C   0  0  0  0  0  0  0  0  0  0  0  0
    0.9670   -3.9801    0.0000 C   0  0  0  0  0  0  0  0  0  0  0  0
   -0.5229   -3.8062    0.0000 C   0  0  0  0  0  0  0  0  0  0  0  0
   -1.5022   -2.7053    0.0000 O   0  0  0  0  0  0  0  0  0  0  0  0
   -1.4670   -2.7569    0.0000 C   0  0  0  0  0  0  0  0  0  0  0  0
   -4.3875   -3.4453    0.0000 O   0  0  0  0  0  0  0  0  0  0  0  0
   -2.4647   -1.6350    0.0000 C   0  0  0  0  0  0  0  0  0  0  0  0
   -3.2604   -2.9065    0.0000 O   0  0  0  0  0  0  0  0  0  0  0  0
   -1.7614   -2.9599    0.0000 C   0  0  0  0  0  0  0  0  0  0  0  0
  1  2  1  0
  2  3  2  0
  2  4  1  0
  5  4  1  6
  5  6  1  0
  6  7  1  0
  7  8  1  1
  8  9  1  0
  8 10  1  0
 10 11  1  0
  7 12  1  0
 12 13  1  0
 13 14  2  0
 14 15  1  0
 15 16  2  0
 14 17  1  0
 17 18  2  0
 18 19  1  0
 18 20  1  0
 20 21  1  1
 21 22  1  0
 22 23  1  1
 22 24  1  0
 25 24  1  1
 25 26  1  0
 26 27  1  0
 27 28  2  0
 27 29  1  0
 29 30  1  6
 31 30  1  6
 29  5  1  0
 11  8  1  0
 19 13  1  0
 22 20  1  0
 31 25  1  0
 31 29  1  0
M  END
>  <identifier>  (382) 
CNP0078248.1

>  <canonical_smiles>  (382) 
CC(=O)O[C@@H]1C[C@@H](C2(C)CO2)CC2=C(C=O)C=C(O2)[C@H]2O[C@]2(C)C[C@@H]2OC(=O)[C@]13O[C@@H]23

>  <standard_inchi>  (382) 
InChI=1S/C22H24O9/c1-10(24)27-16-6-12(21(3)9-26-21)5-13-11(8-23)4-14(28-13)17-20(2,30-17)7-15-18-22(16,31-18)19(25)29-15/h4,8,12,15-18H,5-7,9H2,1-3H3/t12-,15-,16+,17+,18-,20+,21?,22-/m0/s1

>  <standard_inchi_key>  (382) 
IBSBJNRWYFJSMO-QKJAREJLSA-N

>  <name>  (382) 
15,16-epoxylophotoxin

>  <iupac_name>  (382) 
[(1~{S},2~{R},4~{R},10~{S},12~{R},14~{S},15~{S})-7-formyl-12-methyl-4-(2-methyloxiran-2-yl)-17-oxo-11,16,18,19-tetraoxapentacyclo[12.2.2.1^{6,9}.0^{1,15}.0^{10,12}]nonadeca-6,8-dien-2-yl] acetate

>  <annotation_level>  (382) 
5

>  <total_atom_count>  (382) 
55

>  <heavy_atom_count>  (382) 
31

>  <molecular_weight>  (382) 
432.43

>  <exact_molecular_weight>  (382) 
432.14203

>  <molecular_formula>  (382) 
C22H24O9

>  <alogp>  (382) 
1.66

>  <topological_polar_surface_area>  (382) 
120.40

>  <rotatable_bond_count>  (382) 
3

>  <hydrogen_bond_acceptors>  (382) 
9

>  <hydrogen_bond_donors>  (382) 
0

>  <hydrogen_bond_acceptors_lipinski>  (382) 
9

>  <hydrogen_bond_donors_lipinski>  (382) 
0

>  <lipinski_rule_of_five_violations>  (382) 
0

>  <aromatic_rings_count>  (382) 
1

>  <qed_drug_likeliness>  (382) 
0.40

>  <formal_charge>  (382) 
0

>  <fractioncsp3>  (382) 
0.68

>  <number_of_minimal_rings>  (382) 
6

>  <van_der_walls_volume>  (382) 
371.08

>  <contains_sugar>  (382) 
False

>  <contains_ring_sugars>  (382) 
False

>  <contains_linear_sugars>  (382) 
False

>  <murcko_framework>  (382) 
o1c2ccc1C3OC3CC4OCC5(OC45)CCC(C2)C6OC6

>  <np_likeness>  (382) 
3.20

>  <chemical_class>  (382) 
Organooxygen compounds

>  <chemical_sub_class>  (382) 
Carbonyl compounds

>  <chemical_super_class>  (382) 
Organic oxygen compounds

>  <direct_parent_classification>  (382) 
Aryl-aldehydes

>  <np_classifier_pathway>  (382) 
Terpenoids

>  <np_classifier_superclass>  (382) 
Diterpenoids

>  <np_classifier_class>  (382) 
Cembrane diterpenoids

>  <np_classifier_is_glycoside>  (382) 
False

>  <organisms>  (382) 
Leptogorgia peruana|Lophogorgia peruana

>  <collections>  (382) 
BIOFACQUIM|CMNPD|Latin America dataset|NPASS

>  <dois>  (382) 
10.1021/np060388x|10.1039/b701534h

>  <synonyms>  (382) 
CHEMBL464533|15 16-epoxylophotoxin

>  <cas>  (382) 
nan

$$$$

     RDKit          2D

 34 38  0  0  0  0  0  0  0  0999 V2000
   -2.3029    3.4285    0.0000 C   0  0  0  0  0  0  0  0  0  0  0  0
   -2.3004    1.9285    0.0000 C   0  0  0  0  0  0  0  0  0  0  0  0
   -3.5982    1.1764    0.0000 C   0  0  0  0  0  0  0  0  0  0  0  0
   -4.8985    1.9243    0.0000 O   0  0  0  0  0  0  0  0  0  0  0  0
   -6.1963    1.1721    0.0000 C   0  0  0  0  0  0  0  0  0  0  0  0
   -7.4966    1.9200    0.0000 C   0  0  0  0  0  0  0  0  0  0  0  0
   -6.1939   -0.3279    0.0000 O   0  0  0  0  0  0  0  0  0  0  0  0
   -1.0002    1.1807    0.0000 C   0  0  0  0  0  0  0  0  0  0  0  0
    0.0371    2.2642    0.0000 C   0  0  0  0  0  0  0  0  0  0  0  0
    1.4592    2.7415    0.0000 C   0  0  0  0  0  0  0  0  0  0  0  0
    2.4429    3.8739    0.0000 C   0  0  0  0  0  0  0  0  0  0  0  0
    2.1050    5.3353    0.0000 C   0  0  0  0  0  0  0  0  0  0  0  0
    3.2018    6.3586    0.0000 O   0  0  0  0  0  0  0  0  0  0  0  0
    3.8238    3.2882    0.0000 C   0  0  0  0  0  0  0  0  0  0  0  0
    4.1408    1.6042    0.0000 C   0  0  0  0  0  0  0  0  0  0  0  0
    2.9401    2.5033    0.0000 O   0  0  0  0  0  0  0  0  0  0  0  0
    4.7860    0.2501    0.0000 C   0  0  0  0  0  0  0  0  0  0  0  0
    6.0551   -0.5495    0.0000 O   0  0  0  0  0  0  0  0  0  0  0  0
    4.7281   -1.2488    0.0000 C   0  0  0  0  0  0  0  0  0  0  0  0
    5.7690   -2.3289    0.0000 C   0  0  0  0  0  0  0  0  0  0  0  0
    3.9802   -2.5491    0.0000 C   0  0  0  0  0  0  0  0  0  0  0  0
    2.7138   -3.3529    0.0000 C   0  0  0  0  0  0  0  0  0  0  0  0
    1.2596   -3.1150    0.0000 O   0  0  0  0  0  0  0  0  0  0  0  0
    1.3195   -3.1329    0.0000 C   0  0  0  0  0  0  0  0  0  0  0  0
   -0.5146   -5.5077    0.0000 O   0  0  0  0  0  0  0  0  0  0  0  0
   -0.1621   -2.8903    0.0000 C   0  0  0  0  0  0  0  0  0  0  0  0
    0.0212   -4.3791    0.0000 O   0  0  0  0  0  0  0  0  0  0  0  0
    1.2188   -3.4760    0.0000 C   0  0  0  0  0  0  0  0  0  0  0  0
   -1.1127   -1.7300    0.0000 C   0  0  0  0  0  0  0  0  0  0  0  0
   -2.4668   -2.3753    0.0000 O   0  0  0  0  0  0  0  0  0  0  0  0
   -3.7027   -1.5252    0.0000 C   0  0  0  0  0  0  0  0  0  0  0  0
   -5.0568   -2.1705    0.0000 C   0  0  0  0  0  0  0  0  0  0  0  0
   -3.5844   -0.0299    0.0000 O   0  0  0  0  0  0  0  0  0  0  0  0
   -1.4151   -0.2608    0.0000 C   0  0  0  0  0  0  0  0  0  0  0  0
  1  2  2  0
  2  3  1  0
  3  4  1  0
  4  5  1  0
  5  6  1  0
  5  7  2  0
  8  2  1  1
  8  9  1  0
  9 10  1  0
 10 11  2  0
 11 12  1  0
 12 13  2  0
 11 14  1  0
 14 15  2  0
 15 16  1  0
 15 17  1  0
 17 18  1  1
 18 19  1  0
 19 20  1  1
 19 21  1  0
 22 21  1  1
 22 23  1  0
 23 24  1  0
 24 25  2  0
 24 26  1  0
 26 27  1  6
 28 27  1  6
 26 29  1  0
 29 30  1  6
 30 31  1  0
 31 32  1  0
 31 33  2  0
 29 34  1  0
 34  8  1  0
 16 10  1  0
 19 17  1  0
 28 22  1  0
 28 26  1  0
M  END
>  <identifier>  (383) 
CNP0159752.1

>  <canonical_smiles>  (383) 
C=C(COC(C)=O)[C@H]1CC2=C(C=O)C=C(O2)[C@H]2O[C@]2(C)C[C@@H]2OC(=O)[C@]3(O[C@@H]23)[C@H](OC(C)=O)C1

>  <standard_inchi>  (383) 
InChI=1S/C24H26O10/c1-11(10-29-12(2)26)14-5-16-15(9-25)6-17(31-16)20-23(4,33-20)8-18-21-24(34-21,22(28)32-18)19(7-14)30-13(3)27/h6,9,14,18-21H,1,5,7-8,10H2,2-4H3/t14-,18-,19+,20+,21-,23+,24-/m0/s1

>  <standard_inchi_key>  (383) 
GZCGPNRLCLQQFO-PTAFGJLESA-N

>  <name>  (383) 
17-acetoxylophotoxin

>  <iupac_name>  (383) 
2-[(1~{S},2~{R},4~{R},10~{S},12~{R},14~{S},15~{S})-2-acetoxy-7-formyl-12-methyl-17-oxo-11,16,18,19-tetraoxapentacyclo[12.2.2.1^{6,9}.0^{1,15}.0^{10,12}]nonadeca-6,8-dien-4-yl]allyl acetate

>  <annotation_level>  (383) 
5

>  <total_atom_count>  (383) 
60

>  <heavy_atom_count>  (383) 
34

>  <molecular_weight>  (383) 
474.46

>  <exact_molecular_weight>  (383) 
474.1526

>  <molecular_formula>  (383) 
C24H26O10

>  <alogp>  (383) 
1.99

>  <topological_polar_surface_area>  (383) 
134.17

>  <rotatable_bond_count>  (383) 
5

>  <hydrogen_bond_acceptors>  (383) 
10

>  <hydrogen_bond_donors>  (383) 
0

>  <hydrogen_bond_acceptors_lipinski>  (383) 
10

>  <hydrogen_bond_donors_lipinski>  (383) 
0

>  <lipinski_rule_of_five_violations>  (383) 
0

>  <aromatic_rings_count>  (383) 
1

>  <qed_drug_likeliness>  (383) 
0.20

>  <formal_charge>  (383) 
0

>  <fractioncsp3>  (383) 
0.58

>  <number_of_minimal_rings>  (383) 
5

>  <van_der_walls_volume>  (383) 
409.72

>  <contains_sugar>  (383) 
False

>  <contains_ring_sugars>  (383) 
False

>  <contains_linear_sugars>  (383) 
False

>  <murcko_framework>  (383) 
o1c2ccc1C3OC3CC4OCC5(OC45)CCCC2

>  <np_likeness>  (383) 
3.04

>  <chemical_class>  (383) 
Carboxylic acids and derivatives

>  <chemical_sub_class>  (383) 
Tricarboxylic acids and derivatives

>  <chemical_super_class>  (383) 
Organic acids and derivatives

>  <direct_parent_classification>  (383) 
Tricarboxylic acids and derivatives

>  <np_classifier_pathway>  (383) 
Terpenoids

>  <np_classifier_superclass>  (383) 
Diterpenoids

>  <np_classifier_class>  (383) 
Cembrane diterpenoids

>  <np_classifier_is_glycoside>  (383) 
False

>  <organisms>  (383) 
Leptogorgia peruana|Lophogorgia peruana

>  <collections>  (383) 
BIOFACQUIM|CMNPD|Latin America dataset|NPASS

>  <dois>  (383) 
10.1021/np060388x|10.1039/b701534h

>  <synonyms>  (383) 
CHEMBL464326|17-acetoxylophotoxin

>  <cas>  (383) 
nan

$$$$

     RDKit          2D

 25 27  0  0  0  0  0  0  0  0999 V2000
   -5.6351   -0.5949    0.0000 C   0  0  0  0  0  0  0  0  0  0  0  0
   -4.6785    0.5605    0.0000 C   0  0  0  0  0  0  0  0  0  0  0  0
   -5.2008    1.9666    0.0000 C   0  0  0  0  0  0  0  0  0  0  0  0
   -3.1996    0.3097    0.0000 C   0  0  0  0  0  0  0  0  0  0  0  0
   -2.6261    1.6958    0.0000 C   0  0  0  0  0  0  0  0  0  0  0  0
   -1.5079    2.6957    0.0000 C   0  0  0  0  0  0  0  0  0  0  0  0
   -0.0667    3.1114    0.0000 C   0  0  0  0  0  0  0  0  0  0  0  0
    1.4122    2.8607    0.0000 C   0  0  0  0  0  0  0  0  0  0  0  0
    2.6358    1.9931    0.0000 C   0  0  0  0  0  0  0  0  0  0  0  0
    3.3619    0.6805    0.0000 C   0  0  0  0  0  0  0  0  0  0  0  0
    3.4465   -0.8171    0.0000 C   0  0  0  0  0  0  0  0  0  0  0  0
    4.8526   -0.2948    0.0000 C   0  0  0  0  0  0  0  0  0  0  0  0
    4.3601   -2.0068    0.0000 O   0  0  0  0  0  0  0  0  0  0  0  0
    2.8730   -2.2031    0.0000 C   0  0  0  0  0  0  0  0  0  0  0  0
    1.7548   -3.2030    0.0000 C   0  0  0  0  0  0  0  0  0  0  0  0
    2.4809   -4.5156    0.0000 O   0  0  0  0  0  0  0  0  0  0  0  0
    0.3136   -3.6188    0.0000 C   0  0  0  0  0  0  0  0  0  0  0  0
   -0.9100   -2.7512    0.0000 C   0  0  0  0  0  0  0  0  0  0  0  0
   -0.3365   -1.3652    0.0000 C   0  0  0  0  0  0  0  0  0  0  0  0
   -2.3889   -2.5005    0.0000 C   0  0  0  0  0  0  0  0  0  0  0  0
   -2.9625   -3.8865    0.0000 O   0  0  0  0  0  0  0  0  0  0  0  0
   -3.1150   -1.1879    0.0000 C   0  0  0  0  0  0  0  0  0  0  0  0
    2.7530    3.4885    0.0000 O   0  0  0  0  0  0  0  0  0  0  0  0
    1.3670    4.0621    0.0000 C   0  0  0  0  0  0  0  0  0  0  0  0
    1.0163    5.5205    0.0000 O   0  0  0  0  0  0  0  0  0  0  0  0
  1  2  2  0
  2  3  1  0
  4  2  1  6
  4  5  1  0
  5  6  1  0
  6  7  1  0
  7  8  2  0
  8  9  1  0
  9 10  1  1
 10 11  1  0
 11 12  1  1
 11 13  1  0
 14 13  1  6
 14 15  1  0
 15 16  2  0
 15 17  1  0
 17 18  2  0
 18 19  1  0
 18 20  1  0
 20 21  2  0
 20 22  1  0
  9 23  1  0
 23 24  1  0
 24 25  2  0
 22  4  1  0
 24  7  1  0
 14 11  1  0
M  END
>  <identifier>  (384) 
CNP0077906.1

>  <canonical_smiles>  (384) 
C=C(C)[C@@H]1CCC2=C[C@H](C[C@]3(C)O[C@@H]3C(=O)/C=C(\C)C(=O)C1)OC2=O

>  <standard_inchi>  (384) 
InChI=1S/C20H24O5/c1-11(2)13-5-6-14-8-15(24-19(14)23)10-20(4)18(25-20)17(22)7-12(3)16(21)9-13/h7-8,13,15,18H,1,5-6,9-10H2,2-4H3/b12-7+/t13-,15-,18-,20+/m1/s1

>  <standard_inchi_key>  (384) 
MFBDZEVCKCRBMW-NPRLHKGCSA-N

>  <name>  (384) 
nan

>  <iupac_name>  (384) 
(1~{S},3~{S},5~{S},7~{E},11~{R})-11-isopropenyl-3,8-dimethyl-4,16-dioxatricyclo[12.2.1.0^{3,5}]heptadeca-7,14(17)-diene-6,9,15-trione

>  <annotation_level>  (384) 
5

>  <total_atom_count>  (384) 
49

>  <heavy_atom_count>  (384) 
25

>  <molecular_weight>  (384) 
344.41

>  <exact_molecular_weight>  (384) 
344.16237

>  <molecular_formula>  (384) 
C20H24O5

>  <alogp>  (384) 
2.85

>  <topological_polar_surface_area>  (384) 
72.97

>  <rotatable_bond_count>  (384) 
1

>  <hydrogen_bond_acceptors>  (384) 
5

>  <hydrogen_bond_donors>  (384) 
0

>  <hydrogen_bond_acceptors_lipinski>  (384) 
5

>  <hydrogen_bond_donors_lipinski>  (384) 
0

>  <lipinski_rule_of_five_violations>  (384) 
0

>  <aromatic_rings_count>  (384) 
0

>  <qed_drug_likeliness>  (384) 
0.42

>  <formal_charge>  (384) 
0

>  <fractioncsp3>  (384) 
0.55

>  <number_of_minimal_rings>  (384) 
3

>  <van_der_walls_volume>  (384) 
325.10

>  <contains_sugar>  (384) 
False

>  <contains_ring_sugars>  (384) 
False

>  <contains_linear_sugars>  (384) 
False

>  <murcko_framework>  (384) 
O1CC2=CC1CC3OC3CC=CCCCCC2

>  <np_likeness>  (384) 
3.09

>  <chemical_class>  (384) 
Prenol lipids

>  <chemical_sub_class>  (384) 
Terpene lactones

>  <chemical_super_class>  (384) 
Lipids and lipid-like molecules

>  <direct_parent_classification>  (384) 
Terpene lactones

>  <np_classifier_pathway>  (384) 
Terpenoids

>  <np_classifier_superclass>  (384) 
Diterpenoids

>  <np_classifier_class>  (384) 
Cembrane diterpenoids

>  <np_classifier_is_glycoside>  (384) 
False

>  <organisms>  (384) 
Lophogorgia peruana

>  <collections>  (384) 
BIOFACQUIM|Latin America dataset

>  <dois>  (384) 
10.1021/np060388x

>  <synonyms>  (384) 
Isoepoxylophodione

>  <cas>  (384) 
nan

$$$$

     RDKit          2D

 13 14  0  0  0  0  0  0  0  0999 V2000
   -4.3187   -0.9380    0.0000 O   0  0  0  0  0  0  0  0  0  0  0  0
   -2.9483   -0.3280    0.0000 C   0  0  0  0  0  0  0  0  0  0  0  0
   -2.7914    1.1638    0.0000 C   0  0  0  0  0  0  0  0  0  0  0  0
   -1.4211    1.7738    0.0000 C   0  0  0  0  0  0  0  0  0  0  0  0
   -0.2076    0.8920    0.0000 C   0  0  0  0  0  0  0  0  0  0  0  0
    1.1627    1.5020    0.0000 C   0  0  0  0  0  0  0  0  0  0  0  0
    2.3762    0.6202    0.0000 C   0  0  0  0  0  0  0  0  0  0  0  0
    3.7466    1.2302    0.0000 O   0  0  0  0  0  0  0  0  0  0  0  0
    2.2193   -0.8715    0.0000 C   0  0  0  0  0  0  0  0  0  0  0  0
    3.4328   -1.7533    0.0000 O   0  0  0  0  0  0  0  0  0  0  0  0
    0.8489   -1.4815    0.0000 C   0  0  0  0  0  0  0  0  0  0  0  0
   -0.3645   -0.5998    0.0000 C   0  0  0  0  0  0  0  0  0  0  0  0
   -1.7349   -1.2098    0.0000 O   0  0  0  0  0  0  0  0  0  0  0  0
  1  2  2  0
  2  3  1  0
  3  4  2  0
  4  5  1  0
  5  6  2  0
  6  7  1  0
  7  8  1  0
  7  9  2  0
  9 10  1  0
  9 11  1  0
 11 12  2  0
 12 13  1  0
 13  2  1  0
 12  5  1  0
M  END
>  <identifier>  (385) 
CNP0386988.0

>  <canonical_smiles>  (385) 
O=C1C=CC2=CC(O)=C(O)C=C2O1

>  <standard_inchi>  (385) 
InChI=1S/C9H6O4/c10-6-3-5-1-2-9(12)13-8(5)4-7(6)11/h1-4,10-11H

>  <standard_inchi_key>  (385) 
ILEDWLMCKZNDJK-UHFFFAOYSA-N

>  <name>  (385) 
Esculetin

>  <iupac_name>  (385) 
6,7-dihydroxychromen-2-one

>  <annotation_level>  (385) 
5

>  <total_atom_count>  (385) 
19

>  <heavy_atom_count>  (385) 
13

>  <molecular_weight>  (385) 
178.14

>  <exact_molecular_weight>  (385) 
178.02661

>  <molecular_formula>  (385) 
C9H6O4

>  <alogp>  (385) 
1.20

>  <topological_polar_surface_area>  (385) 
70.67

>  <rotatable_bond_count>  (385) 
0

>  <hydrogen_bond_acceptors>  (385) 
4

>  <hydrogen_bond_donors>  (385) 
2

>  <hydrogen_bond_acceptors_lipinski>  (385) 
4

>  <hydrogen_bond_donors_lipinski>  (385) 
2

>  <lipinski_rule_of_five_violations>  (385) 
0

>  <aromatic_rings_count>  (385) 
2

>  <qed_drug_likeliness>  (385) 
0.47

>  <formal_charge>  (385) 
0

>  <fractioncsp3>  (385) 
0.00

>  <number_of_minimal_rings>  (385) 
2

>  <van_der_walls_volume>  (385) 
144.55

>  <contains_sugar>  (385) 
False

>  <contains_ring_sugars>  (385) 
False

>  <contains_linear_sugars>  (385) 
False

>  <murcko_framework>  (385) 
O1c2ccccc2C=CC1

>  <np_likeness>  (385) 
1.03

>  <chemical_class>  (385) 
Coumarins and derivatives

>  <chemical_sub_class>  (385) 
Hydroxycoumarins

>  <chemical_super_class>  (385) 
Phenylpropanoids and polyketides

>  <direct_parent_classification>  (385) 
6,7-dihydroxycoumarins

>  <np_classifier_pathway>  (385) 
Shikimates and Phenylpropanoids

>  <np_classifier_superclass>  (385) 
Coumarins

>  <np_classifier_class>  (385) 
Simple coumarins

>  <np_classifier_is_glycoside>  (385) 
False

>  <organisms>  (385) 
Acacia cambagei|Acanthopanax gracilistylus|Acanthopanax sessiliflorum|Acer palmatum|Aconitum leucostomum|Actaea dahurica|Actaea heracleifolia|Actaea simplex|Actinomadura hibisca|Aesculus hippocastanum|Aesculus turbinata|Agastache rugosa|Agathosma scaberula|Ailanthus altissima|Akebia quinata|Akebia trifoliata|Althaea officinalis|Amsinckia tessellata|Anarsia lineatella|Anastrepha suspensa|Anethum graveolens|Angelica acutiloba|Angelica dahurica|Angelica gigas|Angelica sinensis|Aniba duckei|Anisodus tanguticus|Anolis lineatopus|Apollonias barbujana|Aquilegia ecalcarata|Aralia fargesii|Armillaria tabescens|Arnica viscosa|Artemisia argyi|Artemisia capillaris|Artemisia dracunculus|Artemisia hanseniana|Artemisia montana|Artemisia princeps|Aspalathus linearis|Aspergillus caespitosus|Aspergillus mutabilis|Aspergillus phoenicis|Asphodeline globifera|Aster alpinus|Asteraceae Campanulatae|Astilbe koreana|Athanasia dregeana|Atractylodes chinensis|Atractylodes lancea|Atractylodes macrocephala|Aucuba chinensis|Aurelia aurita|Baccharis solieri|Balanophora harlandii|Berberis crataegina|Bidens tripartita|Bistorta vivipara|Blumea mollis|Boronia muelleri|Brickellia vernicosa|Bruguiera cylindrica|Burkholderia cepacia|Calceolaria thyrsiflora|Calophyllum thwaitesii|Carica dodecaphylla|Carthamus tinctorius|Casimiroa edulis|Cassia carnaval|Castanopsis eyrei|Ceanothus velutinus|Cedronella canariensis|Centaurea huber-morathii|Ceratostigma willmottianum|Chaenomeles sinensis|Chaenomeles speciosa|Chlorophytum borivilianum|Cichorium glandulosum|Cichorium intybus|Cimicifuga foetida|Citrus aurantium|Citrus limon|Citrus limonia|Citrus natsudaidai|Citrus sinensis|Citrus tangerina|Citrus trifoliata|Colchicum macedonicum|Conoideocrella tenuis|Conyza bonariensis|Coprosma acerosa|Coptis deltoidea|Coptis trifolia subsp. groenlandica|Cortex fraxini|Cranfillia vulcanica|Crataegus pontica|Crocus minimus|Cunonia macrophylla|Curculigo pilosa|Cyanospira rippkae|Cymathere triplicata|Cynometra lujae|Cyperus rotundus|Dalbergia frutescens|Deguelia rufescens|Dermophis mexicanus|Diaporthe amygdali|Dicliptera riparia|Dictamnus gymnostylis|Dillenia papuana|Dioncophyllum thollonii|Dipterocarpus dyeri|Ecbolium linneanum|Echinocystis lobata|Entada rheedei|Erica vagans|Erioderma chilense|Erwinia rhapontici|Erycibe obtusifolia|Erycibe schmidtii|Erylus trisphaerus|Eucalyptus decorticans|Eucommia ulmoides|Eupatorium areolare|Euphorbia biglandulosa|Euphorbia caducifolia|Euphorbia ebracteolata|Euphorbia fischeriana|Euphorbia lagascae|Euphorbia lanata|Euphorbia lathyris|Euphorbia lunulata|Euryops rupestris|Fagopyrum tataricum|Felicia amelloides|Felimida luteorosea|Ficus elastica|Forsythia suspensa|Forsythia viridissima|Fragaria vesca|Fraxinus bungeana|Fraxinus chinensis|Fraxinus chinensis subsp. rhynchophylla|Fraxinus excelsior L.|Fraxinus mandshurica|Fraxinus ornus|Fraxinus paxiana|Fraxinus rhynchophylla|Fraxinus spp.|Fraxinus stylosa|Fraxinus szaboana|Garcinia scortechinii|Gardenia tubifera|Gleditsia caspica|Glycyrrhiza glabra|Glycyrrhiza inflata|Glycyrrhiza uralensis|Gracilaria textorii|Haemanthus toxicarius|Hansenia forbesii|Hansenia weberbaueriana|Haplopappus foliosus|Haplophyllum ramosissimum|Helenium quadridentatum|Helianthopsis bishopii|Helichrysum mixtum|Herba cichorii|Herba patriniae|Heteromma simplicifolium|Holarrhena febrifuga|Humata pectinata|Hymenidium lindleyanum|Hypericum carinatum|Hypericum papuanum|Hyphear tanakae|Hypselodoris cantabrica|Ilex kaushue|Impatiens siculifer|Inula thapsoides|Ipomoea cairica|Isodon gesneroides|Isodon lophanthoides|Jacobaea arnautorum|Kalanchoe marmorata|Kali turgidum|Kalopanax septemlobus|Kaunia arbuscularis|Khaya ivorensis|Khaya senegalensis|Khaya senegalensis L.|Kloeckera brevis|Koelpinia linearis|Kopsia grandifolia|Laetia corymbulosa|Lasianthus fordii|Ledebouria socialis|Limeum pterocarpum|Litsea verticillata|Lonicera japonica|Lupinus cosentinii|Lupinus formosus|Lycium chinense|Lycopus europaeus|Lysiana subfalcata|Lythrum salicaria|Macaranga peltata|Machilus robusta|Macrocystidia cucumis|Magnolia obovata|Magnolia officinalis|Mallotus resinosus|Manihot esculenta|Meehania urticifolia|Melaleuca decora|Melilotus officinalis subsp. suaveolens|Melilotus suaveolens|Montanoa speciosa|Morinda citrifolia|Morus alba|Morus bombycis|Nama johnstonii|Nerita albicilla|Nervilia fordii|Nostoc spongiaeforme|Ophiocoma echinata|Osteospermum muricatum|Ostericum grosseserratum|Oxandra xylopioides|Palicourea alpina|Panax innovans|Parablechnum minus|Paramignya griffithii|Parmelia enteromorpha|Patrinia villosa|Penicillium cinerascens|Peperomia vulcanica|Perilla frutescens|Periploca graeca|Persea mexicana|Persicaria perfoliata|Persicaria thunbergii|Phacelia minor|Phaeolus schweinitzii|Phedimus kamtschaticus|Phellodendron amurense|Phellodendron chinense|Phellodendron chinese|Phellodendron japonicum|Phellodendron japonicum MAXIM|Phlomoides medicinalis|Physalis alkekengi|Physalis edulis|Phytolacca acinosa|Phytolacca esculenta|Pinus apacheca|Plantago uniflora|Platycarya strobilacea|Podocarpus montanus|Polemonium caeruleum|Polygonum mite|Polypodiodes formosana|Polytolypa hystricis|Posoqueria latifolia|Premna tomentosa|Pseudophegopteris subaurita|Pteris inaequalis|Pueraria montana var. lobata|Rabdosia loxothyrsa|Rhamnus davurica|Rhodobacter sphaeroides|Rhodoglossum japonicum|Rhodomyrtus tomentosa|Rhodopila globiformis|Roccellaria mollis|Rubus idaeus|Sagittaria sagittifolia|Salix sieboldiana|Salvia euphratica|Salvia xalapensis|Sambucus ebulus|Santolina oblongifolia|Sarcandra glabra|Saussurea amara|Saussurea lappa|Saussurea superba|Schisandra arisanensis|Scrophularia smithii|Sedum ewersii|Sedum kamtschaticum|Senecio polyodon|Senna sophera|Sia ferox|Sideritis euboea|Sisyrinchium californicum|Solanum aculeatum|Solanum torvum|Solanum virginianum|Solanum xanthocarpum|Sonchus gomerensis|Sophora davidii|Sophora japonica|Sorbus tianschanica|Sordaria araneosa|Stephania elegans|Streptomyces fulvoviridis|Streptomyces incarnatus|Strychnos ledermannii|Swertia swertopsis|Symphytum tuberosum|Tanacetum santolinoides|Taraxacum borealisinense|Taraxacum coreanum|Taraxacum formosanum|Taraxacum mongolicum|Taraxacum officinale|Taraxacum platycarpum|Taxus brevifolia|Thymus magnus|Thymus transcaucasicus|Tolypothrix tjipanasensis|Trichoderma koningi|Tricholoma batschii|Trichomanes reniforme|Trifolium alexandrium|Trifolium pratense|Tsuga chinensis|Tylophora flava|Ulmus macrocarpa|Usnea undulata|Utricularia australis|Uvaria cuneifolia|Viburnum davidii|Viola mandshurica|Viola philippica|Virgilia divaricata|Virola sebifera|Wunderlichia mirabilis|Xanthoceras sorbifolium|Xanthoparmelia pokornyi|Xerula melanotricha|Zilla spinosa|[polyangium] brachysporum|pterocaulon sp.

>  <collections>  (385) 
ANPDB|AnalytiCon Discovery NPs|Australian natural products|BIOFACQUIM|CMAUP (cCollective molecular activities of useful plants)|ChEBI NPs|EMNPD|ETM (Ethiopian Traditional Medicine) DB|FooDB|GNPS (Global Natural Products Social Molecular Networking)|HIM (Herbal Ingredients in-vivo Metabolism database)|HIT (Herbal Ingredients Targets)|KNApSaCK|Latin America dataset|NANPDB (Natural Products from Northern African Sources)|NPASS|NPEdia|Phenol-explorer|Phyto4Health|PubChem NPs|ReSpect|SANCDB|Specs Natural Products|Super Natural II|TCMDB-Taiwan (Traditional Chinese Medicine database)|TCMID (Traditional Chinese Medicine Integrated Database)|TIPdb (database of Taiwan indigenous plants)|TPPT (Toxic Plants–PhytoToxins)|UNPD (Universal Natural Products Database)|VietHerb|p-ANAPL

>  <dois>  (385) 
10.1002/9780470744307.gat218|10.1002/ptr.3690|10.1016/0031-9422(83)83031-3|10.1016/S0031-9422(00)80417-3|10.1016/j.ejmech.2012.09.007|10.1021/jf053071w|10.1021/np040129c|10.1021/np50032a019|10.1021/np800001v|10.1021/np800760p|10.1021/np960422f|10.1093/pcp/pcn183

>  <synonyms>  (385) 
305-01-1|6|7-DIHYDROXYCOUMARIN|Aesculetin|6|7-Dihydroxy-2H-chromen-2-one|Cichorigenin|Esculetol|Cichoriin aglucon|Esculatin|Esculin aglucon|2H-1-Benzopyran-2-one| 6|7-dihydroxy-|6|7-dihydroxychromen-2-one|6|7-Dihydroxy-2H-1-benzopyran-2-one|6|7-Dihydroxy-2-benzopyrone|91753-33-2|Coumarin| 6|7-dihydroxy-|NSC 26428|6|7-bis(oxidanyl)chromen-2-one|2|6-Dihydroxy-7H-chromen-7-one|MFCD00006874|MLS000069479|CHEMBL244743|SM2XD6V944|CHEBI:490095|NSC-26428|SMR000059055|CCRIS 7065|6|7-Dihydroxycounmarin|EINECS 206-161-5|BRN 0152788|UNII-SM2XD6V944|Aesculetin |(S)|Spectrum_001166|Aesculetin (cichorigenin|SpecPlus_000334|ESCULETIN MI|ESCULETIN INCI|Prestwick0_000940|Spectrum2_000586|Spectrum3_000752|Spectrum4_001886|Spectrum5_000512|bmse000986|Oprea1_719746|SCHEMBL24641|BSPBio_000880|BSPBio_002364|KBioGR_002416|KBioSS_001646|5-18-03-00202 (Beilstein Handbook Reference)|6|7-Dihydroxycoumarin| 8CI|DivK1c_006430|Esculetin| analytical standard|SPECTRUM1500899|SPBio_000432|SPBio_003049|BPBio1_000968|GTPL5180|DTXSID3075383|BDBM34571|cid_5281416|KBio1_001374|KBio2_001646|KBio2_004214|KBio2_006782|KBio3_001584|DTXSID801293090|HMS1570L22|HMS1921M14|HMS2097L22|HMS2233G24|HMS3373K09|KUC108669N|6|7-Dihydroxycoumarin (Esculetin)|AMY25634|EX-A6796|HY-N0284|Coumarin| 6|7-dihydroxy- Esculetin|BBL037229|CCG-38509|s4711|STL560155|AKOS000276955|Esculetin Matrix for MALDI-TOF\/MS|SDCCGMLS-0066669.P001|2|6-Dihydroxy-7H-1-benzopyran-7-one|SMP2_000093|NCGC00016425-01|NCGC00094873-01|AC-18400|AC-34573|AS-11863|CAS-305-01-1|KSC-11-243-1|NCI60_002119|SY036794|1ST157072|DB-014626|AB00489955|CS-0008780|E0386|E1287|NS00004806|C09263|E-3400|E-3401|O11524|A820407|SR-01000721907|Q3058018|BRD-K58149231-001-06-9|B0005-464319|Esculetin| European Pharmacopoeia (EP) Reference Standard|InChI=1\/C9H6O4\/c10-6-3-5-1-2-9(12)13-8(5)4-7(6)11\/h1-4|10-11|HFC|Esculetin

>  <cas>  (385) 
305-01-1|91753-33-2

$$$$

     RDKit          2D

 23 25  0  0  0  0  0  0  0  0999 V2000
    0.6446    5.0175    0.0000 C   0  0  0  0  0  0  0  0  0  0  0  0
    1.5442    3.8172    0.0000 C   0  0  0  0  0  0  0  0  0  0  0  0
    3.0335    3.9960    0.0000 C   0  0  0  0  0  0  0  0  0  0  0  0
    0.9544    2.4379    0.0000 C   0  0  0  0  0  0  0  0  0  0  0  0
   -0.5258    2.6805    0.0000 C   0  0  0  0  0  0  0  0  0  0  0  0
   -1.9493    2.2073    0.0000 C   0  0  0  0  0  0  0  0  0  0  0  0
   -2.9898    1.1269    0.0000 C   0  0  0  0  0  0  0  0  0  0  0  0
   -2.1593   -0.1222    0.0000 C   0  0  0  0  0  0  0  0  0  0  0  0
   -3.0906   -1.2981    0.0000 C   0  0  0  0  0  0  0  0  0  0  0  0
   -2.1637   -2.9466    0.0000 C   0  0  0  0  0  0  0  0  0  0  0  0
   -0.7845   -3.5363    0.0000 C   0  0  0  0  0  0  0  0  0  0  0  0
   -1.0270   -5.0166    0.0000 C   0  0  0  0  0  0  0  0  0  0  0  0
    0.7108   -3.4175    0.0000 C   0  0  0  0  0  0  0  0  0  0  0  0
    1.9796   -2.6175    0.0000 C   0  0  0  0  0  0  0  0  0  0  0  0
    3.4789   -2.5711    0.0000 C   0  0  0  0  0  0  0  0  0  0  0  0
    3.8981   -1.1309    0.0000 C   0  0  0  0  0  0  0  0  0  0  0  0
    5.3097   -0.6235    0.0000 C   0  0  0  0  0  0  0  0  0  0  0  0
    2.7937    0.1793    0.0000 C   0  0  0  0  0  0  0  0  0  0  0  0
    2.1524    1.5353    0.0000 C   0  0  0  0  0  0  0  0  0  0  0  0
    2.7313   -1.3194    0.0000 O   0  0  0  0  0  0  0  0  0  0  0  0
   -4.4967   -0.7756    0.0000 O   0  0  0  0  0  0  0  0  0  0  0  0
   -4.4344    0.7231    0.0000 C   0  0  0  0  0  0  0  0  0  0  0  0
   -5.6102    1.6544    0.0000 O   0  0  0  0  0  0  0  0  0  0  0  0
  1  2  2  0
  2  3  1  0
  4  2  1  1
  4  5  1  0
  5  6  1  0
  6  7  1  0
  7  8  2  0
  8  9  1  0
  9 10  1  6
 10 11  1  0
 11 12  1  0
 11 13  2  0
 13 14  1  0
 14 15  2  0
 15 16  1  0
 16 17  1  0
 16 18  2  0
 18 19  1  0
 18 20  1  0
  9 21  1  0
 21 22  1  0
 22 23  2  0
 19  4  1  0
 22  7  1  0
 20 14  1  0
M  END
>  <identifier>  (386) 
CNP0305538.1

>  <canonical_smiles>  (386) 
C=C(C)[C@@H]1CCC2=C[C@H](C/C(C)=C\C3=CC(C)=C(C1)O3)OC2=O

>  <standard_inchi>  (386) 
InChI=1S/C20H24O3/c1-12(2)15-5-6-16-10-18(23-20(16)21)8-13(3)7-17-9-14(4)19(11-15)22-17/h7,9-10,15,18H,1,5-6,8,11H2,2-4H3/b13-7-/t15-,18+/m1/s1

>  <standard_inchi_key>  (386) 
TTZXKHUXCFKQHN-FARDUWICSA-N

>  <name>  (386) 
(-)-Rubifolide

>  <iupac_name>  (386) 
(2~{Z},5~{S},11~{R})-11-isopropenyl-3,14-dimethyl-6,16-dioxatricyclo[11.2.1.1^{5,8}]heptadeca-1(15),2,8(17),13-tetraen-7-one

>  <annotation_level>  (386) 
5

>  <total_atom_count>  (386) 
47

>  <heavy_atom_count>  (386) 
23

>  <molecular_weight>  (386) 
312.41

>  <exact_molecular_weight>  (386) 
312.17254

>  <molecular_formula>  (386) 
C20H24O3

>  <alogp>  (386) 
4.76

>  <topological_polar_surface_area>  (386) 
39.44

>  <rotatable_bond_count>  (386) 
1

>  <hydrogen_bond_acceptors>  (386) 
3

>  <hydrogen_bond_donors>  (386) 
0

>  <hydrogen_bond_acceptors_lipinski>  (386) 
3

>  <hydrogen_bond_donors_lipinski>  (386) 
0

>  <lipinski_rule_of_five_violations>  (386) 
0

>  <aromatic_rings_count>  (386) 
1

>  <qed_drug_likeliness>  (386) 
0.55

>  <formal_charge>  (386) 
0

>  <fractioncsp3>  (386) 
0.45

>  <number_of_minimal_rings>  (386) 
3

>  <van_der_walls_volume>  (386) 
303.66

>  <contains_sugar>  (386) 
False

>  <contains_ring_sugars>  (386) 
False

>  <contains_linear_sugars>  (386) 
False

>  <murcko_framework>  (386) 
o1c2ccc1CCCCC3=CC(OC3)CC=C2

>  <np_likeness>  (386) 
2.46

>  <chemical_class>  (386) 
Dihydrofurans

>  <chemical_sub_class>  (386) 
Furanones

>  <chemical_super_class>  (386) 
Organoheterocyclic compounds

>  <direct_parent_classification>  (386) 
Butenolides

>  <np_classifier_pathway>  (386) 
Terpenoids

>  <np_classifier_superclass>  (386) 
Diterpenoids

>  <np_classifier_class>  (386) 
Cembrane diterpenoids

>  <np_classifier_is_glycoside>  (386) 
False

>  <organisms>  (386) 
Gersemia rubiformis|Lophogorgia peruana

>  <collections>  (386) 
BIOFACQUIM|CMNPD|KNApSaCK|Latin America dataset|Super Natural II

>  <dois>  (386) 
10.1021/np060388x|10.1039/np9880500613

>  <synonyms>  (386) 
106231-29-2|(2Z|5S|11R)-3|14-dimethyl-11-prop-1-en-2-yl-6|16-dioxatricyclo11.2.1.15|8heptadeca-1(15)|2|8(17)|13-tetraen-7-one|Rubifolide

>  <cas>  (386) 
106231-29-2

$$$$

     RDKit          2D

 34 36  0  0  0  0  0  0  0  0999 V2000
   -1.2360   -1.9633    0.0000 C   0  0  0  0  0  0  0  0  0  0  0  0
   -0.5360   -0.6366    0.0000 C   0  0  0  0  0  0  0  0  0  0  0  0
    0.9629   -0.5795    0.0000 C   0  0  0  0  0  0  0  0  0  0  0  0
    0.5447    0.8611    0.0000 C   0  0  0  0  0  0  0  0  0  0  0  0
    0.8369   -2.0742    0.0000 C   0  0  0  0  0  0  0  0  0  0  0  0
    2.4618   -0.5223    0.0000 C   0  0  0  0  0  0  0  0  0  0  0  0
    2.2483    0.9624    0.0000 C   0  0  0  0  0  0  0  0  0  0  0  0
    0.8557    1.5199    0.0000 C   0  0  0  0  0  0  0  0  0  0  0  0
   -0.3233    0.5926    0.0000 N   0  0  0  0  0  0  0  0  0  0  0  0
   -1.7159    1.1500    0.0000 C   0  0  0  0  0  0  0  0  0  0  0  0
   -1.9294    2.6347    0.0000 O   0  0  0  0  0  0  0  0  0  0  0  0
   -2.8950    0.2227    0.0000 C   0  0  0  0  0  0  0  0  0  0  0  0
   -2.6814   -1.2620    0.0000 O   0  0  0  0  0  0  0  0  0  0  0  0
   -4.2875    0.7802    0.0000 C   0  0  0  0  0  0  0  0  0  0  0  0
   -5.4666   -0.1471    0.0000 C   0  0  0  0  0  0  0  0  0  0  0  0
   -6.8591    0.4103    0.0000 C   0  0  0  0  0  0  0  0  0  0  0  0
   -8.0382   -0.5170    0.0000 C   0  0  0  0  0  0  0  0  0  0  0  0
   -7.8247   -2.0017    0.0000 C   0  0  0  0  0  0  0  0  0  0  0  0
   -6.4321   -2.5591    0.0000 C   0  0  0  0  0  0  0  0  0  0  0  0
   -5.2530   -1.6319    0.0000 C   0  0  0  0  0  0  0  0  0  0  0  0
    0.6422    3.0046    0.0000 C   0  0  0  0  0  0  0  0  0  0  0  0
    1.8212    3.9319    0.0000 O   0  0  0  0  0  0  0  0  0  0  0  0
   -0.7504    3.5620    0.0000 O   0  0  0  0  0  0  0  0  0  0  0  0
   -0.9639    5.0467    0.0000 C   0  0  0  0  0  0  0  0  0  0  0  0
    2.3620   -2.0190    0.0000 C   0  0  0  0  0  0  0  0  0  0  0  0
    1.1993   -2.9667    0.0000 O   0  0  0  0  0  0  0  0  0  0  0  0
    3.7546   -2.5764    0.0000 N   0  0  0  0  0  0  0  0  0  0  0  0
    4.7150   -1.4243    0.0000 C   0  0  0  0  0  0  0  0  0  0  0  0
    6.2140   -1.3671    0.0000 C   0  0  0  0  0  0  0  0  0  0  0  0
    7.0129   -2.6366    0.0000 O   0  0  0  0  0  0  0  0  0  0  0  0
    6.9139   -0.0404    0.0000 C   0  0  0  0  0  0  0  0  0  0  0  0
    6.1149    1.2291    0.0000 C   0  0  0  0  0  0  0  0  0  0  0  0
    4.6160    1.1719    0.0000 C   0  0  0  0  0  0  0  0  0  0  0  0
    3.9161   -0.1547    0.0000 C   0  0  0  0  0  0  0  0  0  0  0  0
  1  2  2  0
  2  3  1  0
  3  4  1  0
  3  5  1  0
  3  6  1  0
  6  7  1  6
  8  7  1  6
  8  9  1  0
  9 10  1  0
 10 11  2  0
 10 12  1  0
 12 13  1  1
 12 14  1  0
 14 15  1  0
 15 16  2  0
 16 17  1  0
 17 18  2  0
 18 19  1  0
 19 20  2  0
  8 21  1  0
 21 22  2  0
 21 23  1  0
 23 24  1  0
  6 25  1  0
 25 26  2  0
 25 27  1  0
 27 28  1  0
 28 29  2  0
 29 30  1  0
 29 31  1  0
 31 32  2  0
 32 33  1  0
 33 34  2  0
 34  6  1  0
 20 15  1  0
 34 28  1  0
M  END
>  <identifier>  (387) 
CNP0387833.1

>  <canonical_smiles>  (387) 
C=CC(C)(C)[C@]1(C[C@H](NC(=O)[C@@H](O)CC2=CC=CC=C2)C(=O)OC)C(=O)NC2=C(O)C=CC=C21

>  <standard_inchi>  (387) 
InChI=1S/C26H30N2O6/c1-5-25(2,3)26(17-12-9-13-19(29)21(17)28-24(26)33)15-18(23(32)34-4)27-22(31)20(30)14-16-10-7-6-8-11-16/h5-13,18,20,29-30H,1,14-15H2,2-4H3,(H,27,31)(H,28,33)/t18-,20-,26-/m0/s1

>  <standard_inchi_key>  (387) 
NLJQJJGYCFVOFQ-GCOVDLRRSA-N

>  <name>  (387) 
nan

>  <iupac_name>  (387) 
methyl (2~{S})-3-[(3~{S})-3-(1,1-dimethylallyl)-7-hydroxy-2-oxo-indolin-3-yl]-2-[[(2~{S})-2-hydroxy-3-phenyl-propanoyl]amino]propanoate

>  <annotation_level>  (387) 
5

>  <total_atom_count>  (387) 
64

>  <heavy_atom_count>  (387) 
34

>  <molecular_weight>  (387) 
466.53

>  <exact_molecular_weight>  (387) 
466.21039

>  <molecular_formula>  (387) 
C26H30N2O6

>  <alogp>  (387) 
2.45

>  <topological_polar_surface_area>  (387) 
124.96

>  <rotatable_bond_count>  (387) 
9

>  <hydrogen_bond_acceptors>  (387) 
6

>  <hydrogen_bond_donors>  (387) 
4

>  <hydrogen_bond_acceptors_lipinski>  (387) 
6

>  <hydrogen_bond_donors_lipinski>  (387) 
4

>  <lipinski_rule_of_five_violations>  (387) 
0

>  <aromatic_rings_count>  (387) 
2

>  <qed_drug_likeliness>  (387) 
0.26

>  <formal_charge>  (387) 
0

>  <fractioncsp3>  (387) 
0.35

>  <number_of_minimal_rings>  (387) 
3

>  <van_der_walls_volume>  (387) 
426.02

>  <contains_sugar>  (387) 
False

>  <contains_ring_sugars>  (387) 
False

>  <contains_linear_sugars>  (387) 
False

>  <murcko_framework>  (387) 
c1ccc(cc1)CCCNCCC2c3ccccc3NC2

>  <np_likeness>  (387) 
1.24

>  <chemical_class>  (387) 
Carboxylic acids and derivatives

>  <chemical_sub_class>  (387) 
Amino acids, peptides, and analogues

>  <chemical_super_class>  (387) 
Organic acids and derivatives

>  <direct_parent_classification>  (387) 
N-acyl-alpha amino acids

>  <np_classifier_pathway>  (387) 
Amino acids and Peptides

>  <np_classifier_superclass>  (387) 
Small peptides

>  <np_classifier_class>  (387) 
Dipeptides

>  <np_classifier_is_glycoside>  (387) 
False

>  <organisms>  (387) 
Aspergillus sp. MEXU 27861

>  <collections>  (387) 
BIOFACQUIM|Latin America dataset

>  <dois>  (387) 
10.1021/acs.jnatprod.7b00331

>  <synonyms>  (387) 
seco-PF1233 B methyl ester

>  <cas>  (387) 
nan

$$$$

     RDKit          2D

 24 26  0  0  0  0  0  0  0  0999 V2000
   -6.6637    1.3128    0.0000 C   0  0  0  0  0  0  0  0  0  0  0  0
   -5.7518    0.1219    0.0000 O   0  0  0  0  0  0  0  0  0  0  0  0
   -4.2644    0.3162    0.0000 C   0  0  0  0  0  0  0  0  0  0  0  0
   -3.6890    1.7015    0.0000 C   0  0  0  0  0  0  0  0  0  0  0  0
   -4.6010    2.8924    0.0000 O   0  0  0  0  0  0  0  0  0  0  0  0
   -2.2017    1.8958    0.0000 C   0  0  0  0  0  0  0  0  0  0  0  0
   -1.2897    0.7049    0.0000 C   0  0  0  0  0  0  0  0  0  0  0  0
    0.1977    0.8992    0.0000 O   0  0  0  0  0  0  0  0  0  0  0  0
    1.1096   -0.2917    0.0000 C   0  0  0  0  0  0  0  0  0  0  0  0
    2.5970   -0.0974    0.0000 C   0  0  0  0  0  0  0  0  0  0  0  0
    3.5090   -1.2883    0.0000 C   0  0  0  0  0  0  0  0  0  0  0  0
    4.9963   -1.0940    0.0000 C   0  0  0  0  0  0  0  0  0  0  0  0
    5.5717    0.2913    0.0000 C   0  0  0  0  0  0  0  0  0  0  0  0
    7.0591    0.4856    0.0000 O   0  0  0  0  0  0  0  0  0  0  0  0
    4.6597    1.4822    0.0000 C   0  0  0  0  0  0  0  0  0  0  0  0
    5.2351    2.8675    0.0000 O   0  0  0  0  0  0  0  0  0  0  0  0
    3.1724    1.2879    0.0000 C   0  0  0  0  0  0  0  0  0  0  0  0
    0.5343   -1.6770    0.0000 C   0  0  0  0  0  0  0  0  0  0  0  0
    1.4462   -2.8679    0.0000 O   0  0  0  0  0  0  0  0  0  0  0  0
   -0.9531   -1.8713    0.0000 C   0  0  0  0  0  0  0  0  0  0  0  0
   -1.5285   -3.2566    0.0000 O   0  0  0  0  0  0  0  0  0  0  0  0
   -1.8651   -0.6804    0.0000 C   0  0  0  0  0  0  0  0  0  0  0  0
   -3.3524   -0.8747    0.0000 C   0  0  0  0  0  0  0  0  0  0  0  0
   -3.9278   -2.2600    0.0000 O   0  0  0  0  0  0  0  0  0  0  0  0
  1  2  1  0
  2  3  1  0
  3  4  2  0
  4  5  1  0
  4  6  1  0
  6  7  2  0
  7  8  1  0
  8  9  1  0
  9 10  1  0
 10 11  2  0
 11 12  1  0
 12 13  2  0
 13 14  1  0
 13 15  1  0
 15 16  1  0
 15 17  2  0
  9 18  2  0
 18 19  1  0
 18 20  1  0
 20 21  2  0
 20 22  1  0
 22 23  2  0
 23 24  1  0
 23  3  1  0
 22  7  1  0
 17 10  1  0
M  END
>  <identifier>  (388) 
CNP0166298.0

>  <canonical_smiles>  (388) 
COC1=C(O)C=C2OC(C3=CC=C(O)C(O)=C3)=C(O)C(=O)C2=C1O

>  <standard_inchi>  (388) 
InChI=1S/C16H12O8/c1-23-16-9(19)5-10-11(13(16)21)12(20)14(22)15(24-10)6-2-3-7(17)8(18)4-6/h2-5,17-19,21-22H,1H3

>  <standard_inchi_key>  (388) 
JMIFIYIEXODVTO-UHFFFAOYSA-N

>  <name>  (388) 
Patuletin

>  <iupac_name>  (388) 
2-(3,4-dihydroxyphenyl)-3,5,7-trihydroxy-6-methoxy-chromen-4-one

>  <annotation_level>  (388) 
5

>  <total_atom_count>  (388) 
36

>  <heavy_atom_count>  (388) 
24

>  <molecular_weight>  (388) 
332.26

>  <exact_molecular_weight>  (388) 
332.05322

>  <molecular_formula>  (388) 
C16H12O8

>  <alogp>  (388) 
2.00

>  <topological_polar_surface_area>  (388) 
140.59

>  <rotatable_bond_count>  (388) 
2

>  <hydrogen_bond_acceptors>  (388) 
8

>  <hydrogen_bond_donors>  (388) 
5

>  <hydrogen_bond_acceptors_lipinski>  (388) 
8

>  <hydrogen_bond_donors_lipinski>  (388) 
5

>  <lipinski_rule_of_five_violations>  (388) 
0

>  <aromatic_rings_count>  (388) 
3

>  <qed_drug_likeliness>  (388) 
0.45

>  <formal_charge>  (388) 
0

>  <fractioncsp3>  (388) 
0.06

>  <number_of_minimal_rings>  (388) 
3

>  <van_der_walls_volume>  (388) 
265.20

>  <contains_sugar>  (388) 
False

>  <contains_ring_sugars>  (388) 
False

>  <contains_linear_sugars>  (388) 
False

>  <murcko_framework>  (388) 
O1c2ccccc2CC=C1c3ccccc3

>  <np_likeness>  (388) 
1.68

>  <chemical_class>  (388) 
Flavonoids

>  <chemical_sub_class>  (388) 
Flavones

>  <chemical_super_class>  (388) 
Phenylpropanoids and polyketides

>  <direct_parent_classification>  (388) 
Flavonols

>  <np_classifier_pathway>  (388) 
Shikimates and Phenylpropanoids

>  <np_classifier_superclass>  (388) 
Flavonoids

>  <np_classifier_class>  (388) 
Flavonols

>  <np_classifier_is_glycoside>  (388) 
False

>  <organisms>  (388) 
Achillea clypeolata|Achillea moschata|Agaricus hortensis|Amaranthus muricatus|Anthemis tinctoria|Armillaria tabescens|Arnica spp.|Artemisia annua|Artemisia annua L.|Artemisia barrelieri|Asteraceae Campanulatae|Athanasia crithmifolia|Bauhinia splendens|Benzoin praecox|Berberis julianae|Bipolaris sorokiniana|Bridelia ferruginea|Bystropogon origanifolius|Cardamine pinnata|Centaurea collina L.|Centaurea incana|Centella asiatica|Cerbera dilatata|Chrysactinia mexicana|Cneorum pulverulentum|Codonocarpus australis|Crateva nurvala|Diospyros verrucosa|Dovyalis abyssinica|Eriocaulon buergerianum|Eriocaulon sieboldianum|Eriocaulon spp.|Eriophyllum confertiflorum|Erythroxylum microphyllum|Eucalyptus cordata|Euonymus nanoides|Eupatorium perfoliatum|Eupatorium spp.|Fagraea fragrans|Flindersia dissosperma|Fritillaria ussuriensis|Gentiana thunbergii|Ginkgo biloba|Gutierrezia wrightii|Hemizonia spp.|Hunteria zeylanica|Hymenoxys scaposa|Hyphear tanakae|Inula britannica|Jacobaea subalpina|Jasonia montana|Knautia silvatica|Lactobacillus casei|Leptogorgia gilchristi|Leucaena glauca|Lissoclinum fragile|Matricaria chamomilla|Mortierella elongata|Mycobacterium tuberculosis|Nephelium mutabile|Ocotea heterochroma|Omphalotus nidiformis|Paepalanthus polyanthus|Pallenis spinosa|Patrinia scabiosaefolia|Patrinia scabiosifolia|Penicillium lapidosum|Perovskia abrotanoides|Persicaria hydropiper|Phaenocoma prolifera|Pleogyne cunninghami|Pleogyne cunninghamii|Polygala amara|Polypodiodes formosana|Pseudallescheria boydii|Pseudognaphalium affine|Pseudomonas viridiflava|Pyrola decorata|Quercus serrata|Rhaponticum carthamoides|Rhinella arenarum|Rubus rosa|Schizonepeta multifida|Septoria pistaciarum|Siphonoglossa mexicana|Spinacia oleracea|Stephania sutchuenensis|Streptomyces fumanus|Streptomyces lavendofoliae|Streptomyces odorifer|Swertia japonica|Tagetes patula|Teclea boiviniana|Tetraneuris acaulis|Torreya fargesii var. yunnanensis|Turbo argyrostoma|Unonopsis glaucopetala|Vernonia pachyclada|Zieria smithii

>  <collections>  (388) 
ANPDB|Australian natural products|BIOFACQUIM|CMAUP (cCollective molecular activities of useful plants)|ChEBI NPs|FooDB|KNApSaCK|Latin America dataset|NANPDB (Natural Products from Northern African Sources)|NPASS|NPEdia|Super Natural II|TCMDB-Taiwan (Traditional Chinese Medicine database)|TCMID (Traditional Chinese Medicine Integrated Database)|TIPdb (database of Taiwan indigenous plants)|UNPD (Universal Natural Products Database)|VietHerb

>  <dois>  (388) 
10.1016/0031-9422(89)80084-6|10.1016/S0305-1978(97)00007-0|10.1021/jf053071w|10.1021/np990271r

>  <synonyms>  (388) 
6-Methoxyquercetin|519-96-0|Quercetagetin 6-methyl ether|2-(3|4-Dihydroxyphenyl)-3|5|7-trihydroxy-6-methoxy-4-benzopyrone|UNII-9BNM33N01N|9BNM33N01N|6-O-Methylquercetagetin|EINECS 208-280-8|3|5|7|3'|4'-Pentahydroxy-6-methoxyflavone|CHEBI:75164|3'|4'|5|7-Tetrahydroxy-6-methoxyflavonol|DTXSID20199864|petuletin|2-(3|4-dihydroxyphenyl)-3|5|7-trihydroxy-6-methoxy-4H-chromen-4-one|CHEMBL465155|SCHEMBL1144553|BDBM84976|DTXCID80122355|JMIFIYIEXODVTO-UHFFFAOYSA-N|HY-N12503|LMPK12112986|CS-0926326|Q6626552|Patuletin|patuletin

>  <cas>  (388) 
519-96-0

$$$$

     RDKit          2D

 23 25  0  0  0  0  0  0  0  0999 V2000
    1.6425   -3.0933    0.0000 O   0  0  0  0  0  0  0  0  0  0  0  0
    1.1619   -1.6724    0.0000 C   0  0  0  0  0  0  0  0  0  0  0  0
   -0.3090   -1.3782    0.0000 C   0  0  0  0  0  0  0  0  0  0  0  0
   -1.2992   -2.5048    0.0000 O   0  0  0  0  0  0  0  0  0  0  0  0
   -0.7896    0.0428    0.0000 C   0  0  0  0  0  0  0  0  0  0  0  0
   -2.2604    0.3370    0.0000 C   0  0  0  0  0  0  0  0  0  0  0  0
   -2.7410    1.7579    0.0000 C   0  0  0  0  0  0  0  0  0  0  0  0
   -4.2119    2.0522    0.0000 C   0  0  0  0  0  0  0  0  0  0  0  0
   -5.2021    0.9255    0.0000 C   0  0  0  0  0  0  0  0  0  0  0  0
   -6.6730    1.2197    0.0000 O   0  0  0  0  0  0  0  0  0  0  0  0
   -4.7215   -0.4954    0.0000 C   0  0  0  0  0  0  0  0  0  0  0  0
   -5.7118   -1.6221    0.0000 O   0  0  0  0  0  0  0  0  0  0  0  0
   -3.2507   -0.7897    0.0000 C   0  0  0  0  0  0  0  0  0  0  0  0
    0.2007    1.1694    0.0000 O   0  0  0  0  0  0  0  0  0  0  0  0
    1.6715    0.8752    0.0000 C   0  0  0  0  0  0  0  0  0  0  0  0
    2.6618    2.0019    0.0000 C   0  0  0  0  0  0  0  0  0  0  0  0
    4.1327    1.7076    0.0000 C   0  0  0  0  0  0  0  0  0  0  0  0
    5.1229    2.8343    0.0000 O   0  0  0  0  0  0  0  0  0  0  0  0
    4.6133    0.2867    0.0000 C   0  0  0  0  0  0  0  0  0  0  0  0
    6.0841   -0.0076    0.0000 O   0  0  0  0  0  0  0  0  0  0  0  0
    3.6230   -0.8400    0.0000 C   0  0  0  0  0  0  0  0  0  0  0  0
    4.1036   -2.2609    0.0000 O   0  0  0  0  0  0  0  0  0  0  0  0
    2.1522   -0.5457    0.0000 C   0  0  0  0  0  0  0  0  0  0  0  0
  1  2  2  0
  2  3  1  0
  3  4  1  0
  3  5  2  0
  5  6  1  0
  6  7  2  0
  7  8  1  0
  8  9  2  0
  9 10  1  0
  9 11  1  0
 11 12  1  0
 11 13  2  0
  5 14  1  0
 14 15  1  0
 15 16  2  0
 16 17  1  0
 17 18  1  0
 17 19  2  0
 19 20  1  0
 19 21  1  0
 21 22  1  0
 21 23  2  0
 23  2  1  0
 13  6  1  0
 23 15  1  0
M  END
>  <identifier>  (389) 
CNP0376000.0

>  <canonical_smiles>  (389) 
O=C1C(O)=C(C2=CC=C(O)C(O)=C2)OC2=CC(O)=C(O)C(O)=C12

>  <standard_inchi>  (389) 
InChI=1S/C15H10O8/c16-6-2-1-5(3-7(6)17)15-14(22)13(21)10-9(23-15)4-8(18)11(19)12(10)20/h1-4,16-20,22H

>  <standard_inchi_key>  (389) 
ZVOLCUVKHLEPEV-UHFFFAOYSA-N

>  <name>  (389) 
Quercetagetin

>  <iupac_name>  (389) 
2-(3,4-dihydroxyphenyl)-3,5,6,7-tetrahydroxy-chromen-4-one

>  <annotation_level>  (389) 
5

>  <total_atom_count>  (389) 
33

>  <heavy_atom_count>  (389) 
23

>  <molecular_weight>  (389) 
318.24

>  <exact_molecular_weight>  (389) 
318.03757

>  <molecular_formula>  (389) 
C15H10O8

>  <alogp>  (389) 
1.69

>  <topological_polar_surface_area>  (389) 
151.59

>  <rotatable_bond_count>  (389) 
1

>  <hydrogen_bond_acceptors>  (389) 
8

>  <hydrogen_bond_donors>  (389) 
6

>  <hydrogen_bond_acceptors_lipinski>  (389) 
8

>  <hydrogen_bond_donors_lipinski>  (389) 
6

>  <lipinski_rule_of_five_violations>  (389) 
1

>  <aromatic_rings_count>  (389) 
3

>  <qed_drug_likeliness>  (389) 
0.37

>  <formal_charge>  (389) 
0

>  <fractioncsp3>  (389) 
0.00

>  <number_of_minimal_rings>  (389) 
3

>  <van_der_walls_volume>  (389) 
248.30

>  <contains_sugar>  (389) 
False

>  <contains_ring_sugars>  (389) 
False

>  <contains_linear_sugars>  (389) 
False

>  <murcko_framework>  (389) 
O1c2ccccc2CC=C1c3ccccc3

>  <np_likeness>  (389) 
1.66

>  <chemical_class>  (389) 
Flavonoids

>  <chemical_sub_class>  (389) 
Flavones

>  <chemical_super_class>  (389) 
Phenylpropanoids and polyketides

>  <direct_parent_classification>  (389) 
Flavonols

>  <np_classifier_pathway>  (389) 
Shikimates and Phenylpropanoids

>  <np_classifier_superclass>  (389) 
Flavonoids

>  <np_classifier_class>  (389) 
Flavonols

>  <np_classifier_is_glycoside>  (389) 
False

>  <organisms>  (389) 
Acacia catechu|Anthemis spp.|Armillaria tabescens|Asteraceae Campanulatae|Brickellia microphylla|Chrysanthemum spp.|Citrus reticulata|Citrus unshiu|Eriocaulon spp.|Eupatorium gracile|Gmelina arborea|Hymenoxys scaposa|Hyphear tanakae|Leucaena glauca|Leucanthemum atratum|Paepalanthus polyanthus|Paepalanthus ramosus|Paepalanthus robustus|Patersonia umbrosa|Polypodiodes formosana|Rhaponticum carthamoides|Rudbeckia hirta|Senecio oryzetorum|Tagetes erecta|Tagetes patula

>  <collections>  (389) 
ANPDB|Australian natural products|BIOFACQUIM|BitterDB|CMAUP (cCollective molecular activities of useful plants)|ChEBI NPs|FooDB|GNPS (Global Natural Products Social Molecular Networking)|HIT (Herbal Ingredients Targets)|KNApSaCK|Latin America dataset|NANPDB (Natural Products from Northern African Sources)|NPASS|NPEdia|Phyto4Health|Super Natural II|TCMDB-Taiwan (Traditional Chinese Medicine database)|UNPD (Universal Natural Products Database)|VietHerb|ZINC NP

>  <dois>  (389) 
10.1016/0031-9422(75)85211-3|10.1016/0305-1978(88)90094-4|10.1016/s0031-9422(00)97881-6|10.1021/jf053071w

>  <synonyms>  (389) 
90-18-6|6-Hydroxyquercetin|Quercetagenin|3|3'|4'|5|6|7-Hexahydroxyflavone|UNII-SV68G507VO|3|5|6|7|3'|4'-Hexahydroxyflavone|2-(3|4-dihydroxyphenyl)-3|5|6|7-tetrahydroxychromen-4-one|CHEBI:8695|SV68G507VO|EINECS 201-973-6|NSC 115916|4H-1-Benzopyran-4-one| 2-(3|4-dihydroxyphenyl)-3|5|6|7-tetrahydroxy-|Flavone| 3|3'|4'|5|6|7-hexahydroxy-|CHEMBL413552|DTXSID80237978|2-(3|4-Dihydroxyphenyl)-3|5|6|7-tetrahydroxy-4H-1-benzopyran-4-one|3|5|6|7-Tetrahydroxy-2-(3|4-dihydroxyphenyl)-4H-1-benzopyran-4-one|Quercetogetin|3|5|6|7-Tetrahydroxy-2-(3|4-Dihydroxyphenyl)-4h-Chromen-4-One|MYU|3v3v|QUERCETAGETIN MI|QUERCETAGETIN INCI|SCHEMBL554527|BDBM23408|DTXCID30160469|HMS3229L21|3|3'4|5|6|7-hexOH-Flavone|HY-N4149|LMPK12112983|MFCD00017428|AKOS040759308|CCG-101296|AC-34306|MS-24691|1ST170391|DB-057186|CS-0032238|NS00039353|G60890|A843465|Q5931085|quercetagetin

>  <cas>  (389) 
90-18-6

$$$$

     RDKit          2D

 15 16  0  0  0  0  0  0  0  0999 V2000
   -3.0748   -2.0336    0.0000 C   0  0  0  0  0  0  0  0  0  0  0  0
   -1.6124   -1.7001    0.0000 C   0  0  0  0  0  0  0  0  0  0  0  0
   -0.5923   -2.7999    0.0000 O   0  0  0  0  0  0  0  0  0  0  0  0
   -1.1700   -0.2668    0.0000 C   0  0  0  0  0  0  0  0  0  0  0  0
   -2.1900    0.8330    0.0000 C   0  0  0  0  0  0  0  0  0  0  0  0
   -3.6525    0.4994    0.0000 O   0  0  0  0  0  0  0  0  0  0  0  0
   -1.7476    2.2662    0.0000 C   0  0  0  0  0  0  0  0  0  0  0  0
   -0.2852    2.5997    0.0000 C   0  0  0  0  0  0  0  0  0  0  0  0
    0.7349    1.5000    0.0000 C   0  0  0  0  0  0  0  0  0  0  0  0
    0.2925    0.0667    0.0000 C   0  0  0  0  0  0  0  0  0  0  0  0
    1.3125   -1.0331    0.0000 O   0  0  0  0  0  0  0  0  0  0  0  0
    2.7750   -0.6995    0.0000 C   0  0  0  0  0  0  0  0  0  0  0  0
    3.7951   -1.7993    0.0000 O   0  0  0  0  0  0  0  0  0  0  0  0
    3.2174    0.7337    0.0000 C   0  0  0  0  0  0  0  0  0  0  0  0
    2.1973    1.8335    0.0000 C   0  0  0  0  0  0  0  0  0  0  0  0
  1  2  1  0
  2  3  2  0
  2  4  1  0
  4  5  2  0
  5  6  1  0
  5  7  1  0
  7  8  2  0
  8  9  1  0
  9 10  2  0
 10 11  1  0
 11 12  1  0
 12 13  2  0
 12 14  1  0
 14 15  2  0
 10  4  1  0
 15  9  1  0
M  END
>  <identifier>  (390) 
CNP0079780.0

>  <canonical_smiles>  (390) 
CC(=O)C1=C(O)C=CC2=C1OC(=O)C=C2

>  <standard_inchi>  (390) 
InChI=1S/C11H8O4/c1-6(12)10-8(13)4-2-7-3-5-9(14)15-11(7)10/h2-5,13H,1H3

>  <standard_inchi_key>  (390) 
XWYMACPLPPQCHC-UHFFFAOYSA-N

>  <name>  (390) 
8-Acetyl-7-hydroxycoumarin

>  <iupac_name>  (390) 
8-acetyl-7-hydroxy-chromen-2-one

>  <annotation_level>  (390) 
5

>  <total_atom_count>  (390) 
23

>  <heavy_atom_count>  (390) 
15

>  <molecular_weight>  (390) 
204.18

>  <exact_molecular_weight>  (390) 
204.04226

>  <molecular_formula>  (390) 
C11H8O4

>  <alogp>  (390) 
1.70

>  <topological_polar_surface_area>  (390) 
67.51

>  <rotatable_bond_count>  (390) 
1

>  <hydrogen_bond_acceptors>  (390) 
4

>  <hydrogen_bond_donors>  (390) 
1

>  <hydrogen_bond_acceptors_lipinski>  (390) 
4

>  <hydrogen_bond_donors_lipinski>  (390) 
1

>  <lipinski_rule_of_five_violations>  (390) 
0

>  <aromatic_rings_count>  (390) 
2

>  <qed_drug_likeliness>  (390) 
0.57

>  <formal_charge>  (390) 
0

>  <fractioncsp3>  (390) 
0.09

>  <number_of_minimal_rings>  (390) 
2

>  <van_der_walls_volume>  (390) 
170.18

>  <contains_sugar>  (390) 
False

>  <contains_ring_sugars>  (390) 
False

>  <contains_linear_sugars>  (390) 
False

>  <murcko_framework>  (390) 
O1c2ccccc2C=CC1

>  <np_likeness>  (390) 
1.12

>  <chemical_class>  (390) 
Coumarins and derivatives

>  <chemical_sub_class>  (390) 
Hydroxycoumarins

>  <chemical_super_class>  (390) 
Phenylpropanoids and polyketides

>  <direct_parent_classification>  (390) 
7-hydroxycoumarins

>  <np_classifier_pathway>  (390) 
Shikimates and Phenylpropanoids

>  <np_classifier_superclass>  (390) 
Coumarins

>  <np_classifier_class>  (390) 
Simple coumarins

>  <np_classifier_is_glycoside>  (390) 
False

>  <organisms>  (390) 
Adina cordifolia|Asteraceae Campanulatae

>  <collections>  (390) 
BIOFACQUIM|Latin America dataset|NPASS|Super Natural II

>  <dois>  (390) 
10.1016/j.ejmech.2008.06.003|10.1021/jf053071w

>  <synonyms>  (390) 
6748-68-1|8-acetyl-7-hydroxy-2H-chromen-2-one|CHEMBL446518|7-hydroxy-8-acetylcoumarin|2H-1-Benzopyran-2-one| 8-acetyl-7-hydroxy-|QD6QWL7EQR|Umbelliferone| 8-acetyl-|SCHEMBL4639845|Coumarin| 8-acetyl-7-hydroxy-|DTXSID40419935|XWYMACPLPPQCHC-UHFFFAOYSA-N|8-Acetyl-7-hydroxycoumarin| 97%|BDBM50332038|AKOS022647720|PD158651|TS-09781|8-Acetyl-7-hydroxy-2H-1-benzopyran-2-one|AN-829\/13872055|8-acetyl-7-hydroxycoumarin

>  <cas>  (390) 
6748-68-1

$$$$

     RDKit          2D

 16 17  0  0  0  0  0  0  0  0999 V2000
   -2.4450    3.2891    0.0000 C   0  0  0  0  0  0  0  0  0  0  0  0
   -2.6349    1.8011    0.0000 O   0  0  0  0  0  0  0  0  0  0  0  0
   -1.4412    0.8927    0.0000 C   0  0  0  0  0  0  0  0  0  0  0  0
   -0.0577    1.4723    0.0000 C   0  0  0  0  0  0  0  0  0  0  0  0
    1.1360    0.5639    0.0000 C   0  0  0  0  0  0  0  0  0  0  0  0
    0.9461   -0.9241    0.0000 C   0  0  0  0  0  0  0  0  0  0  0  0
    2.1398   -1.8325    0.0000 C   0  0  0  0  0  0  0  0  0  0  0  0
    3.5233   -1.2529    0.0000 C   0  0  0  0  0  0  0  0  0  0  0  0
    3.7132    0.2350    0.0000 C   0  0  0  0  0  0  0  0  0  0  0  0
    5.0967    0.8145    0.0000 O   0  0  0  0  0  0  0  0  0  0  0  0
    2.5195    1.1434    0.0000 O   0  0  0  0  0  0  0  0  0  0  0  0
   -0.4374   -1.5036    0.0000 C   0  0  0  0  0  0  0  0  0  0  0  0
   -1.6311   -0.5952    0.0000 C   0  0  0  0  0  0  0  0  0  0  0  0
   -3.0146   -1.1747    0.0000 C   0  0  0  0  0  0  0  0  0  0  0  0
   -4.2082   -0.2663    0.0000 C   0  0  0  0  0  0  0  0  0  0  0  0
   -3.2045   -2.6627    0.0000 O   0  0  0  0  0  0  0  0  0  0  0  0
  1  2  1  0
  2  3  1  0
  3  4  2  0
  4  5  1  0
  5  6  2  0
  6  7  1  0
  7  8  2  0
  8  9  1  0
  9 10  2  0
  9 11  1  0
  6 12  1  0
 12 13  2  0
 13 14  1  0
 14 15  1  0
 14 16  2  0
 13  3  1  0
 11  5  1  0
M  END
>  <identifier>  (391) 
CNP0436841.0

>  <canonical_smiles>  (391) 
COC1=CC2=C(C=CC(=O)O2)C=C1C(C)=O

>  <standard_inchi>  (391) 
InChI=1S/C12H10O4/c1-7(13)9-5-8-3-4-12(14)16-10(8)6-11(9)15-2/h3-6H,1-2H3

>  <standard_inchi_key>  (391) 
QDWMZGNQFSIPKO-UHFFFAOYSA-N

>  <name>  (391) 
6-acetyl-7-methoxychromen-2-one

>  <iupac_name>  (391) 
6-acetyl-7-methoxy-chromen-2-one

>  <annotation_level>  (391) 
5

>  <total_atom_count>  (391) 
26

>  <heavy_atom_count>  (391) 
16

>  <molecular_weight>  (391) 
218.21

>  <exact_molecular_weight>  (391) 
218.05791

>  <molecular_formula>  (391) 
C12H10O4

>  <alogp>  (391) 
2.00

>  <topological_polar_surface_area>  (391) 
56.51

>  <rotatable_bond_count>  (391) 
2

>  <hydrogen_bond_acceptors>  (391) 
4

>  <hydrogen_bond_donors>  (391) 
0

>  <hydrogen_bond_acceptors_lipinski>  (391) 
4

>  <hydrogen_bond_donors_lipinski>  (391) 
0

>  <lipinski_rule_of_five_violations>  (391) 
0

>  <aromatic_rings_count>  (391) 
2

>  <qed_drug_likeliness>  (391) 
0.57

>  <formal_charge>  (391) 
0

>  <fractioncsp3>  (391) 
0.17

>  <number_of_minimal_rings>  (391) 
2

>  <van_der_walls_volume>  (391) 
187.73

>  <contains_sugar>  (391) 
False

>  <contains_ring_sugars>  (391) 
False

>  <contains_linear_sugars>  (391) 
False

>  <murcko_framework>  (391) 
O1c2ccccc2C=CC1

>  <np_likeness>  (391) 
0.36

>  <chemical_class>  (391) 
Coumarins and derivatives

>  <chemical_sub_class>  (391) 
Coumarins and derivatives

>  <chemical_super_class>  (391) 
Phenylpropanoids and polyketides

>  <direct_parent_classification>  (391) 
Coumarins and derivatives

>  <np_classifier_pathway>  (391) 
Shikimates and Phenylpropanoids

>  <np_classifier_superclass>  (391) 
Coumarins

>  <np_classifier_class>  (391) 
Simple coumarins

>  <np_classifier_is_glycoside>  (391) 
False

>  <organisms>  (391) 
Asteraceae Campanulatae

>  <collections>  (391) 
BIOFACQUIM|Latin America dataset

>  <dois>  (391) 
10.1021/jf053071w

>  <synonyms>  (391) 
CHEMBL1288558|6-acetyl-7-methoxy-2H-chromen-2-one|16850-94-5|6-Acetyl-7-methoxycoumarin|7673MX9MVW|Coumarin| 6-acetyl-7-methoxy-|6-Ethanoyl-7-methoxy-chromen-2-one|BDBM50332039|PD182818|6-Acetyl-7-methoxy-2H-1-benzopyran-2-one|2H-1-Benzopyran-2-one| 6-acetyl-7-methoxy-

>  <cas>  (391) 
16850-94-5

$$$$

     RDKit          2D

 51 55  0  0  0  0  0  0  0  0999 V2000
  -10.4374    4.3494    0.0000 C   0  0  0  0  0  0  0  0  0  0  0  0
   -9.3674    3.2981    0.0000 C   0  0  0  0  0  0  0  0  0  0  0  0
   -9.7428    1.8459    0.0000 O   0  0  0  0  0  0  0  0  0  0  0  0
   -7.9220    3.6992    0.0000 O   0  0  0  0  0  0  0  0  0  0  0  0
   -6.8520    2.6480    0.0000 C   0  0  0  0  0  0  0  0  0  0  0  0
   -7.9032    1.5779    0.0000 C   0  0  0  0  0  0  0  0  0  0  0  0
   -5.8007    3.7180    0.0000 C   0  0  0  0  0  0  0  0  0  0  0  0
   -5.7820    1.5967    0.0000 C   0  0  0  0  0  0  0  0  0  0  0  0
   -6.1573    0.1445    0.0000 C   0  0  0  0  0  0  0  0  0  0  0  0
   -5.0873   -0.9068    0.0000 C   0  0  0  0  0  0  0  0  0  0  0  0
   -3.6419   -0.5057    0.0000 O   0  0  0  0  0  0  0  0  0  0  0  0
   -5.4627   -2.3590    0.0000 C   0  0  0  0  0  0  0  0  0  0  0  0
   -6.9150   -1.9837    0.0000 C   0  0  0  0  0  0  0  0  0  0  0  0
   -5.8381   -3.8113    0.0000 O   0  0  0  0  0  0  0  0  0  0  0  0
   -4.0105   -2.7344    0.0000 C   0  0  0  0  0  0  0  0  0  0  0  0
   -3.4605   -4.1300    0.0000 C   0  0  0  0  0  0  0  0  0  0  0  0
   -4.2663   -5.3952    0.0000 O   0  0  0  0  0  0  0  0  0  0  0  0
   -1.9633   -4.0382    0.0000 C   0  0  0  0  0  0  0  0  0  0  0  0
   -1.5879   -2.5860    0.0000 C   0  0  0  0  0  0  0  0  0  0  0  0
   -0.4139   -3.5196    0.0000 C   0  0  0  0  0  0  0  0  0  0  0  0
   -0.2575   -1.8932    0.0000 C   0  0  0  0  0  0  0  0  0  0  0  0
    1.0077   -2.6989    0.0000 C   0  0  0  0  0  0  0  0  0  0  0  0
    2.3381   -2.0062    0.0000 C   0  0  0  0  0  0  0  0  0  0  0  0
    2.4033   -0.5076    0.0000 C   0  0  0  0  0  0  0  0  0  0  0  0
    1.1381    0.2982    0.0000 C   0  0  0  0  0  0  0  0  0  0  0  0
    1.2034    1.7968    0.0000 C   0  0  0  0  0  0  0  0  0  0  0  0
    2.5338    2.4896    0.0000 C   0  0  0  0  0  0  0  0  0  0  0  0
    2.5991    3.9882    0.0000 O   0  0  0  0  0  0  0  0  0  0  0  0
    3.7990    1.6838    0.0000 C   0  0  0  0  0  0  0  0  0  0  0  0
    5.1294    2.3766    0.0000 O   0  0  0  0  0  0  0  0  0  0  0  0
    6.3946    1.5708    0.0000 C   0  0  0  0  0  0  0  0  0  0  0  0
    6.3294    0.0722    0.0000 O   0  0  0  0  0  0  0  0  0  0  0  0
    7.5946   -0.7336    0.0000 C   0  0  0  0  0  0  0  0  0  0  0  0
    7.5293   -2.2321    0.0000 C   0  0  0  0  0  0  0  0  0  0  0  0
    8.7945   -3.0379    0.0000 O   0  0  0  0  0  0  0  0  0  0  0  0
    8.9250   -0.0408    0.0000 C   0  0  0  0  0  0  0  0  0  0  0  0
   10.1902   -0.8466    0.0000 O   0  0  0  0  0  0  0  0  0  0  0  0
    8.9902    1.4578    0.0000 C   0  0  0  0  0  0  0  0  0  0  0  0
   10.3207    2.1506    0.0000 O   0  0  0  0  0  0  0  0  0  0  0  0
    7.7250    2.2636    0.0000 C   0  0  0  0  0  0  0  0  0  0  0  0
    7.7903    3.7622    0.0000 O   0  0  0  0  0  0  0  0  0  0  0  0
    3.7338    0.1852    0.0000 C   0  0  0  0  0  0  0  0  0  0  0  0
    4.1850   -1.2453    0.0000 C   0  0  0  0  0  0  0  0  0  0  0  0
    5.2209    0.3812    0.0000 C   0  0  0  0  0  0  0  0  0  0  0  0
   -0.1923   -0.3946    0.0000 C   0  0  0  0  0  0  0  0  0  0  0  0
   -0.1270    1.1040    0.0000 C   0  0  0  0  0  0  0  0  0  0  0  0
   -1.4575    0.4112    0.0000 C   0  0  0  0  0  0  0  0  0  0  0  0
   -1.3922    1.9098    0.0000 O   0  0  0  0  0  0  0  0  0  0  0  0
   -2.7879   -0.2816    0.0000 C   0  0  0  0  0  0  0  0  0  0  0  0
   -2.8531   -1.7802    0.0000 C   0  0  0  0  0  0  0  0  0  0  0  0
   -4.1956   -1.1110    0.0000 C   0  0  0  0  0  0  0  0  0  0  0  0
  1  2  1  0
  2  3  2  0
  2  4  1  0
  4  5  1  0
  5  6  1  0
  5  7  1  0
  5  8  1  0
  8  9  1  0
  9 10  1  0
 10 11  2  0
 10 12  1  0
 12 13  1  1
 12 14  1  0
 12 15  1  0
 15 16  1  6
 16 17  1  0
 16 18  1  0
 18 19  1  0
 19 20  1  1
 19 21  1  0
 21 22  1  0
 22 23  1  0
 23 24  2  0
 24 25  1  0
 25 26  1  6
 26 27  1  0
 27 28  1  0
 27 29  1  0
 29 30  1  6
 31 30  1  1
 31 32  1  0
 32 33  1  0
 33 34  1  1
 34 35  1  0
 33 36  1  0
 36 37  1  6
 36 38  1  0
 38 39  1  1
 38 40  1  0
 40 41  1  6
 29 42  1  0
 42 43  1  0
 42 44  1  0
 25 45  1  0
 45 46  1  0
 45 47  1  0
 47 48  2  0
 47 49  1  0
 49 50  1  0
 50 51  1  0
 50 15  1  0
 50 19  1  0
 45 21  1  0
 42 24  1  0
 40 31  1  0
M  END
>  <identifier>  (392) 
CNP0300905.1

>  <canonical_smiles>  (392) 
CC(=O)OC(C)(C)CCC(=O)[C@@](C)(O)[C@H]1C(O)C[C@@]2(C)C3CC=C4[C@@H](CC(O)[C@H](O[C@@H]5O[C@H](CO)[C@@H](O)[C@H](O)[C@H]5O)C4(C)C)C3(C)C(=O)CC12C

>  <standard_inchi>  (392) 
InChI=1S/C38H60O13/c1-18(40)51-33(2,3)13-12-25(43)38(9,48)30-22(42)15-35(6)24-11-10-19-20(37(24,8)26(44)16-36(30,35)7)14-21(41)31(34(19,4)5)50-32-29(47)28(46)27(45)23(17-39)49-32/h10,20-24,27-32,39,41-42,45-48H,11-17H2,1-9H3/t20-,21?,22?,23-,24?,27-,28+,29-,30+,31+,32+,35+,36?,37?,38-/m1/s1

>  <standard_inchi_key>  (392) 
NRRXDXZXLJSBPH-ZTTRCMKYSA-N

>  <name>  (392) 
nan

>  <iupac_name>  (392) 
[(5~{S})-5-[(3~{R},10~{R},14~{S},17~{R})-2,16-dihydroxy-4,4,9,13,14-pentamethyl-11-oxo-3-[(2~{R},3~{R},4~{S},5~{S},6~{R})-3,4,5-trihydroxy-6-(hydroxymethyl)tetrahydropyran-2-yl]oxy-1,2,3,7,8,10,12,15,16,17-decahydrocyclopenta[a]phenanthren-17-yl]-5-hydroxy-1,1-dimethyl-4-oxo-hexyl] acetate

>  <annotation_level>  (392) 
5

>  <total_atom_count>  (392) 
111

>  <heavy_atom_count>  (392) 
51

>  <molecular_weight>  (392) 
724.89

>  <exact_molecular_weight>  (392) 
724.40339

>  <molecular_formula>  (392) 
C38H60O13

>  <alogp>  (392) 
1.34

>  <topological_polar_surface_area>  (392) 
220.51

>  <rotatable_bond_count>  (392) 
9

>  <hydrogen_bond_acceptors>  (392) 
13

>  <hydrogen_bond_donors>  (392) 
7

>  <hydrogen_bond_acceptors_lipinski>  (392) 
13

>  <hydrogen_bond_donors_lipinski>  (392) 
7

>  <lipinski_rule_of_five_violations>  (392) 
3

>  <aromatic_rings_count>  (392) 
0

>  <qed_drug_likeliness>  (392) 
0.13

>  <formal_charge>  (392) 
0

>  <fractioncsp3>  (392) 
0.87

>  <number_of_minimal_rings>  (392) 
5

>  <van_der_walls_volume>  (392) 
664.55

>  <contains_sugar>  (392) 
True

>  <contains_ring_sugars>  (392) 
True

>  <contains_linear_sugars>  (392) 
False

>  <murcko_framework>  (392) 
O1CCCCC1OC2CC3=CCC4C(CCC5CCCC54)C3CC2

>  <np_likeness>  (392) 
2.77

>  <chemical_class>  (392) 
Steroids and steroid derivatives

>  <chemical_sub_class>  (392) 
Steroidal glycosides

>  <chemical_super_class>  (392) 
Lipids and lipid-like molecules

>  <direct_parent_classification>  (392) 
Cucurbitacin glycosides

>  <np_classifier_pathway>  (392) 
Terpenoids

>  <np_classifier_superclass>  (392) 
Triterpenoids

>  <np_classifier_class>  (392) 
Cucurbitane triterpenoids

>  <np_classifier_is_glycoside>  (392) 
True

>  <organisms>  (392) 
Hintonia latiflora

>  <collections>  (392) 
BIOFACQUIM|Latin America dataset

>  <dois>  (392) 
10.1016/j.phytochem.2007.05.006

>  <synonyms>  (392) 
25-O-acetyl-3-O-\u0152\u2264-d-glucopyranosyl-23 24-dihydrocucurbitacin F

>  <cas>  (392) 
nan

$$$$

     RDKit          2D

 32 35  0  0  0  0  0  0  0  0999 V2000
    6.5480    1.2110    0.0000 O   0  0  0  0  0  0  0  0  0  0  0  0
    5.0481    1.2218    0.0000 C   0  0  0  0  0  0  0  0  0  0  0  0
    4.2887   -0.0717    0.0000 C   0  0  0  0  0  0  0  0  0  0  0  0
    2.7887   -0.0608    0.0000 C   0  0  0  0  0  0  0  0  0  0  0  0
    2.0293   -1.3544    0.0000 C   0  0  0  0  0  0  0  0  0  0  0  0
    0.5293   -1.3435    0.0000 C   0  0  0  0  0  0  0  0  0  0  0  0
   -0.2301   -2.6371    0.0000 C   0  0  0  0  0  0  0  0  0  0  0  0
    0.5105   -3.9415    0.0000 C   0  0  0  0  0  0  0  0  0  0  0  0
   -0.2489   -5.2351    0.0000 O   0  0  0  0  0  0  0  0  0  0  0  0
    2.0104   -3.9524    0.0000 C   0  0  0  0  0  0  0  0  0  0  0  0
    2.7510   -5.2568    0.0000 O   0  0  0  0  0  0  0  0  0  0  0  0
    2.7698   -2.6588    0.0000 C   0  0  0  0  0  0  0  0  0  0  0  0
    2.0481    1.2436    0.0000 C   0  0  0  0  0  0  0  0  0  0  0  0
    0.5482    1.2545    0.0000 C   0  0  0  0  0  0  0  0  0  0  0  0
   -0.2112   -0.0391    0.0000 O   0  0  0  0  0  0  0  0  0  0  0  0
   -1.7112   -0.0282    0.0000 C   0  0  0  0  0  0  0  0  0  0  0  0
   -2.4517    1.2763    0.0000 O   0  0  0  0  0  0  0  0  0  0  0  0
   -3.9517    1.2871    0.0000 C   0  0  0  0  0  0  0  0  0  0  0  0
   -4.6923    2.5916    0.0000 C   0  0  0  0  0  0  0  0  0  0  0  0
   -3.9329    3.8852    0.0000 O   0  0  0  0  0  0  0  0  0  0  0  0
   -4.7111   -0.0064    0.0000 C   0  0  0  0  0  0  0  0  0  0  0  0
   -6.2111    0.0045    0.0000 O   0  0  0  0  0  0  0  0  0  0  0  0
   -3.9706   -1.3109    0.0000 C   0  0  0  0  0  0  0  0  0  0  0  0
   -4.7300   -2.6044    0.0000 O   0  0  0  0  0  0  0  0  0  0  0  0
   -2.4706   -1.3217    0.0000 C   0  0  0  0  0  0  0  0  0  0  0  0
   -1.7300   -2.6262    0.0000 O   0  0  0  0  0  0  0  0  0  0  0  0
   -0.1924    2.5589    0.0000 C   0  0  0  0  0  0  0  0  0  0  0  0
    0.5670    3.8525    0.0000 C   0  0  0  0  0  0  0  0  0  0  0  0
   -0.1735    5.1570    0.0000 O   0  0  0  0  0  0  0  0  0  0  0  0
    2.0670    3.8416    0.0000 C   0  0  0  0  0  0  0  0  0  0  0  0
    2.8075    2.5372    0.0000 C   0  0  0  0  0  0  0  0  0  0  0  0
    4.3075    2.5263    0.0000 O   0  0  0  0  0  0  0  0  0  0  0  0
  1  2  2  0
  2  3  1  0
  3  4  2  0
  4  5  1  0
  5  6  2  0
  6  7  1  0
  7  8  2  0
  8  9  1  0
  8 10  1  0
 10 11  1  0
 10 12  2  0
  4 13  1  0
 13 14  2  0
 14 15  1  0
 15 16  1  0
 16 17  1  0
 17 18  1  0
 18 19  1  1
 19 20  1  0
 18 21  1  0
 21 22  1  6
 21 23  1  0
 23 24  1  1
 23 25  1  0
 25 26  1  6
 14 27  1  0
 27 28  2  0
 28 29  1  0
 28 30  1  0
 30 31  2  0
 31 32  1  0
 32  2  1  0
 12  5  1  0
 31 13  1  0
 25 16  1  0
M  END
>  <identifier>  (393) 
CNP0196851.2

>  <canonical_smiles>  (393) 
O=C1C=C(C2=CC=C(O)C(O)=C2)C2=C(OC3O[C@H](CO)[C@@H](O)[C@H](O)[C@H]3O)C=C(O)C=C2O1

>  <standard_inchi>  (393) 
InChI=1S/C21H20O11/c22-7-15-18(27)19(28)20(29)21(32-15)31-14-5-9(23)4-13-17(14)10(6-16(26)30-13)8-1-2-11(24)12(25)3-8/h1-6,15,18-25,27-29H,7H2/t15-,18-,19+,20-,21?/m1/s1

>  <standard_inchi_key>  (393) 
VAPVFWUBNBLVMB-IJFYFLOXSA-N

>  <name>  (393) 
nan

>  <iupac_name>  (393) 
4-(3,4-dihydroxyphenyl)-7-hydroxy-5-[(3~{R},4~{S},5~{S},6~{R})-3,4,5-trihydroxy-6-(hydroxymethyl)tetrahydropyran-2-yl]oxy-chromen-2-one

>  <annotation_level>  (393) 
5

>  <total_atom_count>  (393) 
52

>  <heavy_atom_count>  (393) 
32

>  <molecular_weight>  (393) 
448.38

>  <exact_molecular_weight>  (393) 
448.10056

>  <molecular_formula>  (393) 
C21H20O11

>  <alogp>  (393) 
-0.24

>  <topological_polar_surface_area>  (393) 
190.28

>  <rotatable_bond_count>  (393) 
4

>  <hydrogen_bond_acceptors>  (393) 
11

>  <hydrogen_bond_donors>  (393) 
7

>  <hydrogen_bond_acceptors_lipinski>  (393) 
11

>  <hydrogen_bond_donors_lipinski>  (393) 
7

>  <lipinski_rule_of_five_violations>  (393) 
2

>  <aromatic_rings_count>  (393) 
3

>  <qed_drug_likeliness>  (393) 
0.21

>  <formal_charge>  (393) 
0

>  <fractioncsp3>  (393) 
0.29

>  <number_of_minimal_rings>  (393) 
4

>  <van_der_walls_volume>  (393) 
362.10

>  <contains_sugar>  (393) 
True

>  <contains_ring_sugars>  (393) 
True

>  <contains_linear_sugars>  (393) 
False

>  <murcko_framework>  (393) 
O1c2cccc(OC3OCCCC3)c2C(=CC1)c4ccccc4

>  <np_likeness>  (393) 
1.91

>  <chemical_class>  (393) 
Coumarins and derivatives

>  <chemical_sub_class>  (393) 
Coumarin glycosides

>  <chemical_super_class>  (393) 
Phenylpropanoids and polyketides

>  <direct_parent_classification>  (393) 
Coumarin glycosides

>  <np_classifier_pathway>  (393) 
Shikimates and Phenylpropanoids

>  <np_classifier_superclass>  (393) 
Coumarins

>  <np_classifier_class>  (393) 
Simple coumarins

>  <np_classifier_is_glycoside>  (393) 
True

>  <organisms>  (393) 
Hintonia standleyana

>  <collections>  (393) 
BIOFACQUIM|Latin America dataset

>  <dois>  (393) 
10.1016/j.phytochem.2007.05.006

>  <synonyms>  (393) 
5-O-\u0152\u2264-d-glucopyranosyl-7 3\u201a\u00c4\u2264 4\u201a\u00c4\u2264-trihydroxy-4-phenylcoumarin

>  <cas>  (393) 
nan

$$$$

     RDKit          2D

 51 55  0  0  0  0  0  0  0  0999 V2000
  -10.4374    4.3494    0.0000 C   0  0  0  0  0  0  0  0  0  0  0  0
   -9.3674    3.2981    0.0000 C   0  0  0  0  0  0  0  0  0  0  0  0
   -9.7428    1.8459    0.0000 O   0  0  0  0  0  0  0  0  0  0  0  0
   -7.9220    3.6992    0.0000 O   0  0  0  0  0  0  0  0  0  0  0  0
   -6.8520    2.6480    0.0000 C   0  0  0  0  0  0  0  0  0  0  0  0
   -7.9032    1.5779    0.0000 C   0  0  0  0  0  0  0  0  0  0  0  0
   -5.8007    3.7180    0.0000 C   0  0  0  0  0  0  0  0  0  0  0  0
   -5.7820    1.5967    0.0000 C   0  0  0  0  0  0  0  0  0  0  0  0
   -6.1573    0.1445    0.0000 C   0  0  0  0  0  0  0  0  0  0  0  0
   -5.0873   -0.9068    0.0000 C   0  0  0  0  0  0  0  0  0  0  0  0
   -3.6419   -0.5057    0.0000 O   0  0  0  0  0  0  0  0  0  0  0  0
   -5.4627   -2.3590    0.0000 C   0  0  0  0  0  0  0  0  0  0  0  0
   -6.9150   -1.9837    0.0000 C   0  0  0  0  0  0  0  0  0  0  0  0
   -5.8381   -3.8113    0.0000 O   0  0  0  0  0  0  0  0  0  0  0  0
   -4.0105   -2.7344    0.0000 C   0  0  0  0  0  0  0  0  0  0  0  0
   -3.4605   -4.1300    0.0000 C   0  0  0  0  0  0  0  0  0  0  0  0
   -4.2663   -5.3952    0.0000 O   0  0  0  0  0  0  0  0  0  0  0  0
   -1.9633   -4.0382    0.0000 C   0  0  0  0  0  0  0  0  0  0  0  0
   -1.5879   -2.5860    0.0000 C   0  0  0  0  0  0  0  0  0  0  0  0
   -0.4139   -3.5196    0.0000 C   0  0  0  0  0  0  0  0  0  0  0  0
   -0.2575   -1.8932    0.0000 C   0  0  0  0  0  0  0  0  0  0  0  0
    1.0077   -2.6989    0.0000 C   0  0  0  0  0  0  0  0  0  0  0  0
    2.3381   -2.0062    0.0000 C   0  0  0  0  0  0  0  0  0  0  0  0
    2.4033   -0.5076    0.0000 C   0  0  0  0  0  0  0  0  0  0  0  0
    1.1381    0.2982    0.0000 C   0  0  0  0  0  0  0  0  0  0  0  0
    1.2034    1.7968    0.0000 C   0  0  0  0  0  0  0  0  0  0  0  0
    2.5338    2.4896    0.0000 C   0  0  0  0  0  0  0  0  0  0  0  0
    2.5991    3.9882    0.0000 O   0  0  0  0  0  0  0  0  0  0  0  0
    3.7990    1.6838    0.0000 C   0  0  0  0  0  0  0  0  0  0  0  0
    5.1294    2.3766    0.0000 O   0  0  0  0  0  0  0  0  0  0  0  0
    6.3946    1.5708    0.0000 C   0  0  0  0  0  0  0  0  0  0  0  0
    6.3294    0.0722    0.0000 O   0  0  0  0  0  0  0  0  0  0  0  0
    7.5946   -0.7336    0.0000 C   0  0  0  0  0  0  0  0  0  0  0  0
    7.5293   -2.2321    0.0000 C   0  0  0  0  0  0  0  0  0  0  0  0
    8.7945   -3.0379    0.0000 O   0  0  0  0  0  0  0  0  0  0  0  0
    8.9250   -0.0408    0.0000 C   0  0  0  0  0  0  0  0  0  0  0  0
   10.1902   -0.8466    0.0000 O   0  0  0  0  0  0  0  0  0  0  0  0
    8.9902    1.4578    0.0000 C   0  0  0  0  0  0  0  0  0  0  0  0
   10.3207    2.1506    0.0000 O   0  0  0  0  0  0  0  0  0  0  0  0
    7.7250    2.2636    0.0000 C   0  0  0  0  0  0  0  0  0  0  0  0
    7.7903    3.7622    0.0000 O   0  0  0  0  0  0  0  0  0  0  0  0
    3.7338    0.1852    0.0000 C   0  0  0  0  0  0  0  0  0  0  0  0
    4.1850   -1.2453    0.0000 C   0  0  0  0  0  0  0  0  0  0  0  0
    5.2209    0.3812    0.0000 C   0  0  0  0  0  0  0  0  0  0  0  0
   -0.1923   -0.3946    0.0000 C   0  0  0  0  0  0  0  0  0  0  0  0
   -0.1270    1.1040    0.0000 C   0  0  0  0  0  0  0  0  0  0  0  0
   -1.4575    0.4112    0.0000 C   0  0  0  0  0  0  0  0  0  0  0  0
   -1.3922    1.9098    0.0000 O   0  0  0  0  0  0  0  0  0  0  0  0
   -2.7879   -0.2816    0.0000 C   0  0  0  0  0  0  0  0  0  0  0  0
   -2.8531   -1.7802    0.0000 C   0  0  0  0  0  0  0  0  0  0  0  0
   -4.1956   -1.1110    0.0000 C   0  0  0  0  0  0  0  0  0  0  0  0
  1  2  1  0
  2  3  2  0
  2  4  1  0
  4  5  1  0
  5  6  1  0
  5  7  1  0
  5  8  1  0
  8  9  1  0
  9 10  1  0
 10 11  2  0
 10 12  1  0
 12 13  1  6
 12 14  1  0
 15 12  1  6
 15 16  1  0
 16 17  1  6
 16 18  1  0
 18 19  1  0
 19 20  1  1
 19 21  1  0
 21 22  1  1
 22 23  1  0
 23 24  2  0
 24 25  1  0
 25 26  1  6
 26 27  1  0
 27 28  1  6
 27 29  1  0
 29 30  1  6
 31 30  1  1
 31 32  1  0
 32 33  1  0
 33 34  1  1
 34 35  1  0
 33 36  1  0
 36 37  1  6
 36 38  1  0
 38 39  1  1
 38 40  1  0
 40 41  1  6
 29 42  1  0
 42 43  1  0
 42 44  1  0
 25 45  1  0
 45 46  1  6
 45 47  1  0
 47 48  2  0
 47 49  1  0
 49 50  1  0
 50 51  1  6
 50 15  1  0
 50 19  1  0
 45 21  1  0
 42 24  1  0
 40 31  1  0
M  END
>  <identifier>  (394) 
CNP0300905.2

>  <canonical_smiles>  (394) 
CC(=O)OC(C)(C)CCC(=O)[C@](C)(O)[C@H]1[C@@H](O)C[C@@]2(C)[C@@H]3CC=C4[C@@H](C[C@H](O)[C@H](O[C@@H]5O[C@H](CO)[C@@H](O)[C@H](O)[C@H]5O)C4(C)C)[C@]3(C)C(=O)C[C@]12C

>  <standard_inchi>  (394) 
InChI=1S/C38H60O13/c1-18(40)51-33(2,3)13-12-25(43)38(9,48)30-22(42)15-35(6)24-11-10-19-20(37(24,8)26(44)16-36(30,35)7)14-21(41)31(34(19,4)5)50-32-29(47)28(46)27(45)23(17-39)49-32/h10,20-24,27-32,39,41-42,45-48H,11-17H2,1-9H3/t20-,21+,22+,23-,24+,27-,28+,29-,30+,31+,32+,35+,36-,37+,38+/m1/s1

>  <standard_inchi_key>  (394) 
NRRXDXZXLJSBPH-DIGDTYDKSA-N

>  <name>  (394) 
nan

>  <iupac_name>  (394) 
[(5~{R})-5-[(2~{S},3~{R},8~{S},9~{R},10~{R},13~{R},14~{S},16~{S},17~{R})-2,16-dihydroxy-4,4,9,13,14-pentamethyl-11-oxo-3-[(2~{R},3~{R},4~{S},5~{S},6~{R})-3,4,5-trihydroxy-6-(hydroxymethyl)tetrahydropyran-2-yl]oxy-1,2,3,7,8,10,12,15,16,17-decahydrocyclopenta[a]phenanthren-17-yl]-5-hydroxy-1,1-dimethyl-4-oxo-hexyl] acetate

>  <annotation_level>  (394) 
5

>  <total_atom_count>  (394) 
111

>  <heavy_atom_count>  (394) 
51

>  <molecular_weight>  (394) 
724.89

>  <exact_molecular_weight>  (394) 
724.40339

>  <molecular_formula>  (394) 
C38H60O13

>  <alogp>  (394) 
1.34

>  <topological_polar_surface_area>  (394) 
220.51

>  <rotatable_bond_count>  (394) 
9

>  <hydrogen_bond_acceptors>  (394) 
13

>  <hydrogen_bond_donors>  (394) 
7

>  <hydrogen_bond_acceptors_lipinski>  (394) 
13

>  <hydrogen_bond_donors_lipinski>  (394) 
7

>  <lipinski_rule_of_five_violations>  (394) 
3

>  <aromatic_rings_count>  (394) 
0

>  <qed_drug_likeliness>  (394) 
0.13

>  <formal_charge>  (394) 
0

>  <fractioncsp3>  (394) 
0.87

>  <number_of_minimal_rings>  (394) 
5

>  <van_der_walls_volume>  (394) 
663.00

>  <contains_sugar>  (394) 
True

>  <contains_ring_sugars>  (394) 
True

>  <contains_linear_sugars>  (394) 
False

>  <murcko_framework>  (394) 
O1CCCCC1OC2CC3=CCC4C(CCC5CCCC54)C3CC2

>  <np_likeness>  (394) 
2.77

>  <chemical_class>  (394) 
Steroids and steroid derivatives

>  <chemical_sub_class>  (394) 
Steroidal glycosides

>  <chemical_super_class>  (394) 
Lipids and lipid-like molecules

>  <direct_parent_classification>  (394) 
Cucurbitacin glycosides

>  <np_classifier_pathway>  (394) 
Terpenoids

>  <np_classifier_superclass>  (394) 
Triterpenoids

>  <np_classifier_class>  (394) 
Cucurbitane triterpenoids

>  <np_classifier_is_glycoside>  (394) 
True

>  <organisms>  (394) 
Hintonia standleyana

>  <collections>  (394) 
BIOFACQUIM|Latin America dataset

>  <dois>  (394) 
10.1016/j.phytochem.2007.05.006

>  <synonyms>  (394) 
25-O-acetyl-3-O-\u0152\u2264-d-glucopyranosyl-23 24-dihydrocucurbitacin F

>  <cas>  (394) 
nan

$$$$

     RDKit          2D

 48 52  0  0  0  0  0  0  0  0999 V2000
   -8.3316    2.5114    0.0000 C   0  0  0  0  0  0  0  0  0  0  0  0
   -7.1911    3.4857    0.0000 C   0  0  0  0  0  0  0  0  0  0  0  0
   -6.0506    4.4601    0.0000 C   0  0  0  0  0  0  0  0  0  0  0  0
   -8.1654    4.6262    0.0000 O   0  0  0  0  0  0  0  0  0  0  0  0
   -6.2168    2.3453    0.0000 C   0  0  0  0  0  0  0  0  0  0  0  0
   -6.7173    0.9312    0.0000 C   0  0  0  0  0  0  0  0  0  0  0  0
   -5.7430   -0.2093    0.0000 C   0  0  0  0  0  0  0  0  0  0  0  0
   -4.2682    0.0643    0.0000 O   0  0  0  0  0  0  0  0  0  0  0  0
   -6.2435   -1.6233    0.0000 C   0  0  0  0  0  0  0  0  0  0  0  0
   -7.6576   -1.1228    0.0000 C   0  0  0  0  0  0  0  0  0  0  0  0
   -6.7441   -3.0373    0.0000 O   0  0  0  0  0  0  0  0  0  0  0  0
   -4.8295   -2.1238    0.0000 C   0  0  0  0  0  0  0  0  0  0  0  0
   -4.4033   -3.5620    0.0000 C   0  0  0  0  0  0  0  0  0  0  0  0
   -5.3163   -4.7521    0.0000 O   0  0  0  0  0  0  0  0  0  0  0  0
   -2.9038   -3.6011    0.0000 C   0  0  0  0  0  0  0  0  0  0  0  0
   -2.4033   -2.1870    0.0000 C   0  0  0  0  0  0  0  0  0  0  0  0
   -1.3151   -3.2194    0.0000 C   0  0  0  0  0  0  0  0  0  0  0  0
   -1.0175   -1.6128    0.0000 C   0  0  0  0  0  0  0  0  0  0  0  0
    0.1726   -2.5258    0.0000 C   0  0  0  0  0  0  0  0  0  0  0  0
    1.5584   -1.9516    0.0000 C   0  0  0  0  0  0  0  0  0  0  0  0
    1.7540   -0.4644    0.0000 C   0  0  0  0  0  0  0  0  0  0  0  0
    0.5638    0.4486    0.0000 C   0  0  0  0  0  0  0  0  0  0  0  0
    0.7594    1.9358    0.0000 C   0  0  0  0  0  0  0  0  0  0  0  0
    2.1452    2.5100    0.0000 C   0  0  0  0  0  0  0  0  0  0  0  0
    2.3408    3.9971    0.0000 O   0  0  0  0  0  0  0  0  0  0  0  0
    3.3353    1.5970    0.0000 C   0  0  0  0  0  0  0  0  0  0  0  0
    4.7211    2.1712    0.0000 O   0  0  0  0  0  0  0  0  0  0  0  0
    5.9112    1.2582    0.0000 C   0  0  0  0  0  0  0  0  0  0  0  0
    5.7156   -0.2290    0.0000 O   0  0  0  0  0  0  0  0  0  0  0  0
    6.9057   -1.1420    0.0000 C   0  0  0  0  0  0  0  0  0  0  0  0
    6.7101   -2.6292    0.0000 C   0  0  0  0  0  0  0  0  0  0  0  0
    7.9003   -3.5422    0.0000 O   0  0  0  0  0  0  0  0  0  0  0  0
    8.2915   -0.5678    0.0000 C   0  0  0  0  0  0  0  0  0  0  0  0
    9.4816   -1.4808    0.0000 O   0  0  0  0  0  0  0  0  0  0  0  0
    8.4871    0.9194    0.0000 C   0  0  0  0  0  0  0  0  0  0  0  0
    9.8728    1.4936    0.0000 O   0  0  0  0  0  0  0  0  0  0  0  0
    7.2969    1.8324    0.0000 C   0  0  0  0  0  0  0  0  0  0  0  0
    7.4925    3.3196    0.0000 O   0  0  0  0  0  0  0  0  0  0  0  0
    3.1397    0.1098    0.0000 C   0  0  0  0  0  0  0  0  0  0  0  0
    3.4646   -1.3546    0.0000 C   0  0  0  0  0  0  0  0  0  0  0  0
    4.6383    0.1754    0.0000 C   0  0  0  0  0  0  0  0  0  0  0  0
   -0.8219   -0.1256    0.0000 C   0  0  0  0  0  0  0  0  0  0  0  0
   -0.6263    1.3615    0.0000 C   0  0  0  0  0  0  0  0  0  0  0  0
   -2.0121    0.7873    0.0000 C   0  0  0  0  0  0  0  0  0  0  0  0
   -1.8165    2.2745    0.0000 O   0  0  0  0  0  0  0  0  0  0  0  0
   -3.3978    0.2131    0.0000 C   0  0  0  0  0  0  0  0  0  0  0  0
   -3.5934   -1.2740    0.0000 C   0  0  0  0  0  0  0  0  0  0  0  0
   -4.8725   -0.4905    0.0000 C   0  0  0  0  0  0  0  0  0  0  0  0
  1  2  1  0
  2  3  1  0
  2  4  1  0
  2  5  1  0
  5  6  1  0
  6  7  1  0
  7  8  2  0
  7  9  1  0
  9 10  1  6
  9 11  1  0
 12  9  1  6
 12 13  1  0
 13 14  1  6
 13 15  1  0
 15 16  1  0
 16 17  1  1
 16 18  1  0
 18 19  1  1
 19 20  1  0
 20 21  2  0
 21 22  1  0
 22 23  1  6
 23 24  1  0
 24 25  1  6
 24 26  1  0
 26 27  1  6
 28 27  1  1
 28 29  1  0
 29 30  1  0
 30 31  1  1
 31 32  1  0
 30 33  1  0
 33 34  1  6
 33 35  1  0
 35 36  1  1
 35 37  1  0
 37 38  1  6
 26 39  1  0
 39 40  1  0
 39 41  1  0
 22 42  1  0
 42 43  1  6
 42 44  1  0
 44 45  2  0
 44 46  1  0
 46 47  1  0
 47 48  1  6
 47 12  1  0
 47 16  1  0
 42 18  1  0
 39 21  1  0
 37 28  1  0
M  END
>  <identifier>  (395) 
CNP0166599.1

>  <canonical_smiles>  (395) 
CC(C)(O)CCC(=O)[C@](C)(O)[C@H]1[C@@H](O)C[C@@]2(C)[C@@H]3CC=C4[C@@H](C[C@H](O)[C@H](O[C@@H]5O[C@H](CO)[C@@H](O)[C@H](O)[C@H]5O)C4(C)C)[C@]3(C)C(=O)C[C@]12C

>  <standard_inchi>  (395) 
InChI=1S/C36H58O12/c1-31(2,45)12-11-23(40)36(8,46)28-20(39)14-33(5)22-10-9-17-18(35(22,7)24(41)15-34(28,33)6)13-19(38)29(32(17,3)4)48-30-27(44)26(43)25(42)21(16-37)47-30/h9,18-22,25-30,37-39,42-46H,10-16H2,1-8H3/t18-,19+,20+,21-,22+,25-,26+,27-,28+,29+,30+,33+,34-,35+,36+/m1/s1

>  <standard_inchi_key>  (395) 
MSHWJYPCLRLDEB-QJVBSNBYSA-N

>  <name>  (395) 
nan

>  <iupac_name>  (395) 
(2~{S},3~{R},8~{S},9~{R},10~{R},13~{R},14~{S},16~{S},17~{R})-17-[(1~{R})-1,5-dihydroxy-1,5-dimethyl-2-oxo-hexyl]-2,16-dihydroxy-4,4,9,13,14-pentamethyl-3-[(2~{R},3~{R},4~{S},5~{S},6~{R})-3,4,5-trihydroxy-6-(hydroxymethyl)tetrahydropyran-2-yl]oxy-1,2,3,7,8,10,12,15,16,17-decahydrocyclopenta[a]phenanthren-11-one

>  <annotation_level>  (395) 
5

>  <total_atom_count>  (395) 
106

>  <heavy_atom_count>  (395) 
48

>  <molecular_weight>  (395) 
682.85

>  <exact_molecular_weight>  (395) 
682.39283

>  <molecular_formula>  (395) 
C36H58O12

>  <alogp>  (395) 
0.77

>  <topological_polar_surface_area>  (395) 
214.44

>  <rotatable_bond_count>  (395) 
8

>  <hydrogen_bond_acceptors>  (395) 
12

>  <hydrogen_bond_donors>  (395) 
8

>  <hydrogen_bond_acceptors_lipinski>  (395) 
12

>  <hydrogen_bond_donors_lipinski>  (395) 
8

>  <lipinski_rule_of_five_violations>  (395) 
3

>  <aromatic_rings_count>  (395) 
0

>  <qed_drug_likeliness>  (395) 
0.17

>  <formal_charge>  (395) 
0

>  <fractioncsp3>  (395) 
0.89

>  <number_of_minimal_rings>  (395) 
5

>  <van_der_walls_volume>  (395) 
624.98

>  <contains_sugar>  (395) 
True

>  <contains_ring_sugars>  (395) 
True

>  <contains_linear_sugars>  (395) 
False

>  <murcko_framework>  (395) 
O1CCCCC1OC2CC3=CCC4C(CCC5CCCC54)C3CC2

>  <np_likeness>  (395) 
2.79

>  <chemical_class>  (395) 
Steroids and steroid derivatives

>  <chemical_sub_class>  (395) 
Steroidal glycosides

>  <chemical_super_class>  (395) 
Lipids and lipid-like molecules

>  <direct_parent_classification>  (395) 
Cucurbitacin glycosides

>  <np_classifier_pathway>  (395) 
Terpenoids

>  <np_classifier_superclass>  (395) 
Triterpenoids

>  <np_classifier_class>  (395) 
Cucurbitane triterpenoids

>  <np_classifier_is_glycoside>  (395) 
True

>  <organisms>  (395) 
Hintonia standleyana

>  <collections>  (395) 
BIOFACQUIM|Latin America dataset

>  <dois>  (395) 
10.1016/j.pbb.2006.02.020

>  <synonyms>  (395) 
3-O-\u0152\u2264-d-glucopyranosyl-23 24-dihydrocucurbitacin F

>  <cas>  (395) 
nan

$$$$

     RDKit          2D

 40 44  0  0  0  0  0  0  0  0999 V2000
   -0.5254   -2.1342    0.0000 C   0  0  0  0  0  0  0  0  0  0  0  0
    0.2583   -0.8552    0.0000 C   0  0  0  0  0  0  0  0  0  0  0  0
   -0.4575    0.4630    0.0000 C   0  0  0  0  0  0  0  0  0  0  0  0
   -1.9570    0.5022    0.0000 C   0  0  0  0  0  0  0  0  0  0  0  0
   -2.7407   -0.7769    0.0000 O   0  0  0  0  0  0  0  0  0  0  0  0
   -4.2402   -0.7377    0.0000 C   0  0  0  0  0  0  0  0  0  0  0  0
   -4.9560    0.5805    0.0000 O   0  0  0  0  0  0  0  0  0  0  0  0
   -6.4555    0.6197    0.0000 C   0  0  0  0  0  0  0  0  0  0  0  0
   -7.1713    1.9379    0.0000 C   0  0  0  0  0  0  0  0  0  0  0  0
   -6.3876    3.2169    0.0000 O   0  0  0  0  0  0  0  0  0  0  0  0
   -7.2392   -0.6593    0.0000 C   0  0  0  0  0  0  0  0  0  0  0  0
   -8.7386   -0.6202    0.0000 O   0  0  0  0  0  0  0  0  0  0  0  0
   -6.5233   -1.9775    0.0000 C   0  0  0  0  0  0  0  0  0  0  0  0
   -7.3070   -3.2565    0.0000 O   0  0  0  0  0  0  0  0  0  0  0  0
   -5.0239   -2.0167    0.0000 C   0  0  0  0  0  0  0  0  0  0  0  0
   -4.3080   -3.3349    0.0000 O   0  0  0  0  0  0  0  0  0  0  0  0
   -2.6728    1.8203    0.0000 O   0  0  0  0  0  0  0  0  0  0  0  0
   -1.8892    3.0993    0.0000 C   0  0  0  0  0  0  0  0  0  0  0  0
   -0.3897    3.0602    0.0000 C   0  0  0  0  0  0  0  0  0  0  0  0
    0.3940    4.3392    0.0000 C   0  0  0  0  0  0  0  0  0  0  0  0
    1.8935    4.3000    0.0000 O   0  0  0  0  0  0  0  0  0  0  0  0
   -0.3218    5.6574    0.0000 O   0  0  0  0  0  0  0  0  0  0  0  0
    0.3261    1.7420    0.0000 C   0  0  0  0  0  0  0  0  0  0  0  0
    1.8256    1.7028    0.0000 C   0  0  0  0  0  0  0  0  0  0  0  0
    2.5414    0.3846    0.0000 C   0  0  0  0  0  0  0  0  0  0  0  0
    1.7578   -0.8944    0.0000 N   0  0  0  0  0  0  0  0  0  0  0  0
    2.4736   -2.2125    0.0000 C   0  0  0  0  0  0  0  0  0  0  0  0
    1.6899   -3.4916    0.0000 C   0  0  0  0  0  0  0  0  0  0  0  0
    0.1904   -3.4524    0.0000 O   0  0  0  0  0  0  0  0  0  0  0  0
    2.4057   -4.8097    0.0000 O   0  0  0  0  0  0  0  0  0  0  0  0
    3.9731   -2.2517    0.0000 C   0  0  0  0  0  0  0  0  0  0  0  0
    4.7567   -0.9727    0.0000 C   0  0  0  0  0  0  0  0  0  0  0  0
    4.0409    0.3455    0.0000 C   0  0  0  0  0  0  0  0  0  0  0  0
    5.0734    1.4336    0.0000 N   0  0  0  0  0  0  0  0  0  0  0  0
    6.4273    0.7879    0.0000 C   0  0  0  0  0  0  0  0  0  0  0  0
    7.8131    1.3620    0.0000 C   0  0  0  0  0  0  0  0  0  0  0  0
    9.0032    0.4490    0.0000 C   0  0  0  0  0  0  0  0  0  0  0  0
    8.8075   -1.0382    0.0000 C   0  0  0  0  0  0  0  0  0  0  0  0
    7.4217   -1.6123    0.0000 C   0  0  0  0  0  0  0  0  0  0  0  0
    6.2316   -0.6993    0.0000 C   0  0  0  0  0  0  0  0  0  0  0  0
  1  2  2  0
  3  2  1  6
  3  4  1  0
  4  5  1  1
  6  5  1  1
  6  7  1  0
  7  8  1  0
  8  9  1  1
  9 10  1  0
  8 11  1  0
 11 12  1  6
 11 13  1  0
 13 14  1  1
 13 15  1  0
 15 16  1  6
  4 17  1  0
 17 18  1  0
 18 19  2  0
 19 20  1  0
 20 21  2  0
 20 22  1  0
 19 23  1  0
 23 24  1  6
 24 25  1  0
 25 26  2  0
 26 27  1  0
 27 28  1  0
 28 29  2  0
 28 30  1  0
 27 31  2  0
 31 32  1  0
 32 33  2  0
 33 34  1  0
 34 35  1  0
 35 36  2  0
 36 37  1  0
 37 38  2  0
 38 39  1  0
 39 40  2  0
 23  3  1  0
 33 25  1  0
 40 35  1  0
 15  6  1  0
 40 32  1  0
M  END
>  <identifier>  (396) 
CNP0151843.1

>  <canonical_smiles>  (396) 
C=C[C@@H]1[C@@H](O[C@@H]2O[C@H](CO)[C@@H](O)[C@H](O)[C@H]2O)OC=C(C(=O)O)[C@@H]1CC1=NC(C(=O)O)=CC2=C1NC1=CC=CC=C12

>  <standard_inchi>  (396) 
InChI=1S/C27H28N2O11/c1-2-11-13(7-17-20-14(8-18(28-17)25(36)37)12-5-3-4-6-16(12)29-20)15(24(34)35)10-38-26(11)40-27-23(33)22(32)21(31)19(9-30)39-27/h2-6,8,10-11,13,19,21-23,26-27,29-33H,1,7,9H2,(H,34,35)(H,36,37)/t11-,13+,19+,21+,22-,23+,26+,27-/m0/s1

>  <standard_inchi_key>  (396) 
NZDJYDLHIUUXMC-XFMDPDKHSA-N

>  <name>  (396) 
nan

>  <iupac_name>  (396) 
1-[[(2~{R},3~{S},4~{R})-5-carboxy-2-[(2~{S},3~{R},4~{S},5~{S},6~{R})-3,4,5-trihydroxy-6-(hydroxymethyl)tetrahydropyran-2-yl]oxy-3-vinyl-3,4-dihydro-2~{H}-pyran-4-yl]methyl]-9~{H}-pyrido[3,4-b]indole-3-carboxylic acid

>  <annotation_level>  (396) 
5

>  <total_atom_count>  (396) 
68

>  <heavy_atom_count>  (396) 
40

>  <molecular_weight>  (396) 
556.52

>  <exact_molecular_weight>  (396) 
556.16931

>  <molecular_formula>  (396) 
C27H28N2O11

>  <alogp>  (396) 
0.52

>  <topological_polar_surface_area>  (396) 
211.89

>  <rotatable_bond_count>  (396) 
8

>  <hydrogen_bond_acceptors>  (396) 
10

>  <hydrogen_bond_donors>  (396) 
7

>  <hydrogen_bond_acceptors_lipinski>  (396) 
10

>  <hydrogen_bond_donors_lipinski>  (396) 
7

>  <lipinski_rule_of_five_violations>  (396) 
2

>  <aromatic_rings_count>  (396) 
3

>  <qed_drug_likeliness>  (396) 
0.19

>  <formal_charge>  (396) 
0

>  <fractioncsp3>  (396) 
0.37

>  <number_of_minimal_rings>  (396) 
5

>  <van_der_walls_volume>  (396) 
466.52

>  <contains_sugar>  (396) 
True

>  <contains_ring_sugars>  (396) 
True

>  <contains_linear_sugars>  (396) 
False

>  <murcko_framework>  (396) 
n1ccc2c3ccccc3[nH]c2c1CC4C=COC(OC5OCCCC5)C4

>  <np_likeness>  (396) 
1.92

>  <chemical_class>  (396) 
Harmala alkaloids

>  <chemical_sub_class>  (396) 
Harmala alkaloids

>  <chemical_super_class>  (396) 
Alkaloids and derivatives

>  <direct_parent_classification>  (396) 
Harmala alkaloids

>  <np_classifier_pathway>  (396) 
Alkaloids

>  <np_classifier_superclass>  (396) 
Tryptophan alkaloids

>  <np_classifier_class>  (396) 
Carboline alkaloids

>  <np_classifier_is_glycoside>  (396) 
True

>  <organisms>  (396) 
Hintonia standleyana

>  <collections>  (396) 
BIOFACQUIM|Latin America dataset

>  <dois>  (396) 
10.1016/j.phytochem.2007.05.006

>  <synonyms>  (396) 
Desoxycordifolinic acid

>  <cas>  (396) 
nan

$$$$

     RDKit          2D

 27 29  0  0  0  0  0  0  0  0999 V2000
    6.8787    2.3483    0.0000 C   0  0  0  0  0  0  0  0  0  0  0  0
    7.4670    0.9685    0.0000 C   0  0  0  0  0  0  0  0  0  0  0  0
    6.5662   -0.2310    0.0000 C   0  0  0  0  0  0  0  0  0  0  0  0
    7.1545   -1.6108    0.0000 C   0  0  0  0  0  0  0  0  0  0  0  0
    5.0771   -0.0505    0.0000 C   0  0  0  0  0  0  0  0  0  0  0  0
    4.4888    1.3293    0.0000 O   0  0  0  0  0  0  0  0  0  0  0  0
    4.1763   -1.2499    0.0000 O   0  0  0  0  0  0  0  0  0  0  0  0
    2.6872   -1.0695    0.0000 C   0  0  0  0  0  0  0  0  0  0  0  0
    2.8676    0.4196    0.0000 C   0  0  0  0  0  0  0  0  0  0  0  0
    2.5068   -2.5586    0.0000 C   0  0  0  0  0  0  0  0  0  0  0  0
    1.1981   -0.8891    0.0000 C   0  0  0  0  0  0  0  0  0  0  0  0
    0.4688    0.4216    0.0000 C   0  0  0  0  0  0  0  0  0  0  0  0
   -1.0032    0.1331    0.0000 C   0  0  0  0  0  0  0  0  0  0  0  0
   -1.1836   -1.3561    0.0000 C   0  0  0  0  0  0  0  0  0  0  0  0
   -2.5634   -1.9444    0.0000 C   0  0  0  0  0  0  0  0  0  0  0  0
   -3.7628   -1.0436    0.0000 C   0  0  0  0  0  0  0  0  0  0  0  0
   -5.1426   -1.6319    0.0000 O   0  0  0  0  0  0  0  0  0  0  0  0
   -6.3420   -0.7311    0.0000 C   0  0  0  0  0  0  0  0  0  0  0  0
   -7.7219   -1.3194    0.0000 C   0  0  0  0  0  0  0  0  0  0  0  0
   -6.1616    0.7580    0.0000 C   0  0  0  0  0  0  0  0  0  0  0  0
   -4.7818    1.3463    0.0000 C   0  0  0  0  0  0  0  0  0  0  0  0
   -4.6014    2.8354    0.0000 O   0  0  0  0  0  0  0  0  0  0  0  0
   -3.5824    0.4455    0.0000 C   0  0  0  0  0  0  0  0  0  0  0  0
   -2.2026    1.0339    0.0000 C   0  0  0  0  0  0  0  0  0  0  0  0
   -2.0222    2.5230    0.0000 O   0  0  0  0  0  0  0  0  0  0  0  0
   -0.6424    3.1113    0.0000 C   0  0  0  0  0  0  0  0  0  0  0  0
    0.1769   -1.9878    0.0000 O   0  0  0  0  0  0  0  0  0  0  0  0
  1  2  1  0
  2  3  2  0
  3  4  1  0
  3  5  1  0
  5  6  2  0
  5  7  1  0
  7  8  1  0
  8  9  1  0
  8 10  1  0
 11  8  1  1
 11 12  1  0
 12 13  1  0
 13 14  2  0
 14 15  1  0
 15 16  2  0
 16 17  1  0
 17 18  1  0
 18 19  1  0
 18 20  2  0
 20 21  1  0
 21 22  2  0
 21 23  1  0
 23 24  2  0
 24 25  1  0
 25 26  1  0
 14 27  1  0
 27 11  1  0
 24 13  1  0
 23 16  1  0
M  END
>  <identifier>  (397) 
CNP0140160.1

>  <canonical_smiles>  (397) 
C/C=C(/C)C(=O)OC(C)(C)[C@@H]1CC2=C(C=C3OC(C)=CC(=O)C3=C2OC)O1

>  <standard_inchi>  (397) 
InChI=1S/C21H24O6/c1-7-11(2)20(23)27-21(4,5)17-9-13-15(26-17)10-16-18(19(13)24-6)14(22)8-12(3)25-16/h7-8,10,17H,9H2,1-6H3/b11-7-/t17-/m0/s1

>  <standard_inchi_key>  (397) 
KAGWZYJXIXLTRQ-GJBHZFNWSA-N

>  <name>  (397) 
nan

>  <iupac_name>  (397) 
[1-[(2~{S})-4-methoxy-7-methyl-5-oxo-2,3-dihydrofuro[3,2-g]chromen-2-yl]-1-methyl-ethyl] (~{Z})-2-methylbut-2-enoate

>  <annotation_level>  (397) 
5

>  <total_atom_count>  (397) 
51

>  <heavy_atom_count>  (397) 
27

>  <molecular_weight>  (397) 
372.42

>  <exact_molecular_weight>  (397) 
372.15729

>  <molecular_formula>  (397) 
C21H24O6

>  <alogp>  (397) 
3.70

>  <topological_polar_surface_area>  (397) 
74.97

>  <rotatable_bond_count>  (397) 
4

>  <hydrogen_bond_acceptors>  (397) 
6

>  <hydrogen_bond_donors>  (397) 
0

>  <hydrogen_bond_acceptors_lipinski>  (397) 
6

>  <hydrogen_bond_donors_lipinski>  (397) 
0

>  <lipinski_rule_of_five_violations>  (397) 
0

>  <aromatic_rings_count>  (397) 
2

>  <qed_drug_likeliness>  (397) 
0.60

>  <formal_charge>  (397) 
0

>  <fractioncsp3>  (397) 
0.43

>  <number_of_minimal_rings>  (397) 
3

>  <van_der_walls_volume>  (397) 
337.42

>  <contains_sugar>  (397) 
False

>  <contains_ring_sugars>  (397) 
False

>  <contains_linear_sugars>  (397) 
False

>  <murcko_framework>  (397) 
O1C=CCc2cc3c(OCC3)cc12

>  <np_likeness>  (397) 
2.61

>  <chemical_class>  (397) 
Benzopyrans

>  <chemical_sub_class>  (397) 
1-benzopyrans

>  <chemical_super_class>  (397) 
Organoheterocyclic compounds

>  <direct_parent_classification>  (397) 
Furanochromones

>  <np_classifier_pathway>  (397) 
Polyketides

>  <np_classifier_superclass>  (397) 
Chromanes

>  <np_classifier_class>  (397) 
Chromones

>  <np_classifier_is_glycoside>  (397) 
False

>  <organisms>  (397) 
Prionosciadium thapsoides

>  <collections>  (397) 
BIOFACQUIM|Latin America dataset

>  <dois>  (397) 
10.1021/np800387w

>  <synonyms>  (397) 
(S)-(+)-4\u201a\u00c4\u2264-O-angeloyl-5-O-methylvisamminol

>  <cas>  (397) 
nan

$$$$

     RDKit          2D

 21 23  0  0  0  0  0  0  0  0999 V2000
   -0.7579   -3.3557    0.0000 C   0  0  0  0  0  0  0  0  0  0  0  0
    0.5426   -2.6082    0.0000 O   0  0  0  0  0  0  0  0  0  0  0  0
    0.5455   -1.1082    0.0000 C   0  0  0  0  0  0  0  0  0  0  0  0
   -0.7520   -0.3557    0.0000 C   0  0  0  0  0  0  0  0  0  0  0  0
   -2.1795   -0.8164    0.0000 C   0  0  0  0  0  0  0  0  0  0  0  0
   -3.0588    0.3989    0.0000 C   0  0  0  0  0  0  0  0  0  0  0  0
   -4.5588    0.4019    0.0000 C   0  0  0  0  0  0  0  0  0  0  0  0
   -4.5618   -1.0981    0.0000 C   0  0  0  0  0  0  0  0  0  0  0  0
   -4.5558    1.9019    0.0000 C   0  0  0  0  0  0  0  0  0  0  0  0
   -6.0588    0.4048    0.0000 O   0  0  0  0  0  0  0  0  0  0  0  0
   -2.1747    1.6107    0.0000 O   0  0  0  0  0  0  0  0  0  0  0  0
   -0.7491    1.1443    0.0000 C   0  0  0  0  0  0  0  0  0  0  0  0
    0.5515    1.8918    0.0000 C   0  0  0  0  0  0  0  0  0  0  0  0
    1.8490    1.1392    0.0000 C   0  0  0  0  0  0  0  0  0  0  0  0
    1.8461   -0.3608    0.0000 C   0  0  0  0  0  0  0  0  0  0  0  0
    3.1436   -1.1134    0.0000 C   0  0  0  0  0  0  0  0  0  0  0  0
    3.1406   -2.6133    0.0000 O   0  0  0  0  0  0  0  0  0  0  0  0
    4.4441   -0.3659    0.0000 C   0  0  0  0  0  0  0  0  0  0  0  0
    4.4471    1.1341    0.0000 C   0  0  0  0  0  0  0  0  0  0  0  0
    5.7476    1.8815    0.0000 C   0  0  0  0  0  0  0  0  0  0  0  0
    3.1495    1.8866    0.0000 O   0  0  0  0  0  0  0  0  0  0  0  0
  1  2  1  0
  2  3  1  0
  3  4  2  0
  4  5  1  0
  5  6  1  0
  6  7  1  1
  7  8  1  0
  7  9  1  0
  7 10  1  0
  6 11  1  0
 11 12  1  0
 12 13  2  0
 13 14  1  0
 14 15  2  0
 15 16  1  0
 16 17  2  0
 16 18  1  0
 18 19  2  0
 19 20  1  0
 19 21  1  0
 15  3  1  0
 12  4  1  0
 21 14  1  0
M  END
>  <identifier>  (398) 
CNP0177675.1

>  <canonical_smiles>  (398) 
COC1=C2C[C@@H](C(C)(C)O)OC2=CC2=C1C(=O)C=C(C)O2

>  <standard_inchi>  (398) 
InChI=1S/C16H18O5/c1-8-5-10(17)14-12(20-8)7-11-9(15(14)19-4)6-13(21-11)16(2,3)18/h5,7,13,18H,6H2,1-4H3/t13-/m0/s1

>  <standard_inchi_key>  (398) 
DGFLRNOCLJGHLY-ZDUSSCGKSA-N

>  <name>  (398) 
5-O-Methylvisamminol

>  <iupac_name>  (398) 
(2~{S})-2-(1-hydroxy-1-methyl-ethyl)-4-methoxy-7-methyl-2,3-dihydrofuro[3,2-g]chromen-5-one

>  <annotation_level>  (398) 
5

>  <total_atom_count>  (398) 
39

>  <heavy_atom_count>  (398) 
21

>  <molecular_weight>  (398) 
290.32

>  <exact_molecular_weight>  (398) 
290.11542

>  <molecular_formula>  (398) 
C16H18O5

>  <alogp>  (398) 
2.18

>  <topological_polar_surface_area>  (398) 
68.90

>  <rotatable_bond_count>  (398) 
2

>  <hydrogen_bond_acceptors>  (398) 
5

>  <hydrogen_bond_donors>  (398) 
1

>  <hydrogen_bond_acceptors_lipinski>  (398) 
5

>  <hydrogen_bond_donors_lipinski>  (398) 
1

>  <lipinski_rule_of_five_violations>  (398) 
0

>  <aromatic_rings_count>  (398) 
2

>  <qed_drug_likeliness>  (398) 
0.92

>  <formal_charge>  (398) 
0

>  <fractioncsp3>  (398) 
0.44

>  <number_of_minimal_rings>  (398) 
3

>  <van_der_walls_volume>  (398) 
257.58

>  <contains_sugar>  (398) 
False

>  <contains_ring_sugars>  (398) 
False

>  <contains_linear_sugars>  (398) 
False

>  <murcko_framework>  (398) 
O1C=CCc2cc3c(OCC3)cc12

>  <np_likeness>  (398) 
2.62

>  <chemical_class>  (398) 
Benzopyrans

>  <chemical_sub_class>  (398) 
1-benzopyrans

>  <chemical_super_class>  (398) 
Organoheterocyclic compounds

>  <direct_parent_classification>  (398) 
Furanochromones

>  <np_classifier_pathway>  (398) 
Polyketides

>  <np_classifier_superclass>  (398) 
Chromanes

>  <np_classifier_class>  (398) 
Chromones

>  <np_classifier_is_glycoside>  (398) 
False

>  <organisms>  (398) 
Dalbergia odorifera|Herba gynurae bicoloris|Herba nerviliae|Ledebouriella seseloides|Prionosciadium thapsoides|Radix polygoni aubertii|Radix semiaquilegiae|Saposhnikovia divaricata

>  <collections>  (398) 
BIOFACQUIM|CMAUP (cCollective molecular activities of useful plants)|ChEBI NPs|KNApSaCK|Latin America dataset|NPASS|NPEdia|Super Natural II|TCMDB-Taiwan (Traditional Chinese Medicine database)|ZINC NP

>  <dois>  (398) 
10.1021/np800387w

>  <synonyms>  (398) 
80681-42-1|(2S)-2-(2-hydroxypropan-2-yl)-4-methoxy-7-methyl-2|3-dihydrofuro3|2-gchromen-5-one|5H-Furo3|2-g1benzopyran-5-one| 2|3-dihydro-2-(1-hydroxy-1-methylethyl)-4-methoxy-7-methyl-| (2S)-|(S)-2-(2-Hydroxypropan-2-yl)-4-methoxy-7-methyl-2H-furo3|2-gchromen-5(3H)-one|C09016|CHEBI:2110|SCHEMBL4740689|DTXSID10331695|HY-N7206|LMPK13110002|AKOS040760232|MS-24139|PD164924|CS-0105176|G13536|Q27105556|(2S)-2-(2-HYDROXYPROPAN-2-YL)-4-METHOXY-7-METHYL-2H|3H|5H-FURO3|2-GCHROMEN-5-ONE|5-O-methylvisamminol

>  <cas>  (398) 
80681-42-1

$$$$

     RDKit          2D

 22 23  0  0  0  0  0  0  0  0999 V2000
   -4.7071   -2.1330    0.0000 C   0  0  0  0  0  0  0  0  0  0  0  0
   -4.2996   -0.6894    0.0000 C   0  0  0  0  0  0  0  0  0  0  0  0
   -5.3460    0.3853    0.0000 C   0  0  0  0  0  0  0  0  0  0  0  0
   -2.8457   -0.3205    0.0000 C   0  0  0  0  0  0  0  0  0  0  0  0
   -2.8818    1.1790    0.0000 C   0  0  0  0  0  0  0  0  0  0  0  0
   -2.2637    2.5457    0.0000 C   0  0  0  0  0  0  0  0  0  0  0  0
   -1.1138    3.5089    0.0000 C   0  0  0  0  0  0  0  0  0  0  0  0
   -1.7969    4.8443    0.0000 C   0  0  0  0  0  0  0  0  0  0  0  0
    0.3562    3.2105    0.0000 C   0  0  0  0  0  0  0  0  0  0  0  0
    1.8102    3.5793    0.0000 C   0  0  0  0  0  0  0  0  0  0  0  0
    3.0051    2.6726    0.0000 C   0  0  0  0  0  0  0  0  0  0  0  0
    3.6882    1.3372    0.0000 C   0  0  0  0  0  0  0  0  0  0  0  0
    5.1422    1.7061    0.0000 C   0  0  0  0  0  0  0  0  0  0  0  0
    3.7243   -0.1624    0.0000 C   0  0  0  0  0  0  0  0  0  0  0  0
    3.1062   -1.5291    0.0000 C   0  0  0  0  0  0  0  0  0  0  0  0
    4.3012   -2.4358    0.0000 O   0  0  0  0  0  0  0  0  0  0  0  0
    1.9563   -2.4923    0.0000 C   0  0  0  0  0  0  0  0  0  0  0  0
    0.5024   -2.8612    0.0000 C   0  0  0  0  0  0  0  0  0  0  0  0
    1.2835   -4.1418    0.0000 C   0  0  0  0  0  0  0  0  0  0  0  0
   -0.4911   -3.9850    0.0000 O   0  0  0  0  0  0  0  0  0  0  0  0
   -0.9676   -2.5627    0.0000 C   0  0  0  0  0  0  0  0  0  0  0  0
   -2.1625   -1.6559    0.0000 C   0  0  0  0  0  0  0  0  0  0  0  0
  1  2  2  0
  2  3  1  0
  4  2  1  6
  4  5  1  0
  5  6  1  0
  6  7  1  0
  7  8  1  0
  7  9  2  0
  9 10  1  0
 10 11  1  0
 11 12  1  0
 12 13  1  0
 12 14  2  0
 14 15  1  0
 15 16  2  0
 15 17  1  0
 17 18  1  0
 18 19  1  6
 18 20  1  0
 20 21  1  0
 21 22  1  6
 22  4  1  0
 21 18  1  0
M  END
>  <identifier>  (399) 
CNP0219058.1

>  <canonical_smiles>  (399) 
C=C(C)[C@@H]1CC/C(C)=C/CC/C(C)=C\C(=O)C[C@@]2(C)O[C@@H]2C1

>  <standard_inchi>  (399) 
InChI=1S/C20H30O2/c1-14(2)17-10-9-15(3)7-6-8-16(4)11-18(21)13-20(5)19(12-17)22-20/h7,11,17,19H,1,6,8-10,12-13H2,2-5H3/b15-7+,16-11-/t17-,19-,20-/m1/s1

>  <standard_inchi_key>  (399) 
UCOLQSNNKIYDRU-YFRHNWSZSA-N

>  <name>  (399) 
leptodienone A

>  <iupac_name>  (399) 
(1~{R},4~{Z},8~{E},12~{R},14~{R})-12-isopropenyl-1,5,9-trimethyl-15-oxabicyclo[12.1.0]pentadeca-4,8-dien-3-one

>  <annotation_level>  (399) 
5

>  <total_atom_count>  (399) 
52

>  <heavy_atom_count>  (399) 
22

>  <molecular_weight>  (399) 
302.46

>  <exact_molecular_weight>  (399) 
302.22458

>  <molecular_formula>  (399) 
C20H30O2

>  <alogp>  (399) 
5.15

>  <topological_polar_surface_area>  (399) 
29.60

>  <rotatable_bond_count>  (399) 
1

>  <hydrogen_bond_acceptors>  (399) 
2

>  <hydrogen_bond_donors>  (399) 
0

>  <hydrogen_bond_acceptors_lipinski>  (399) 
2

>  <hydrogen_bond_donors_lipinski>  (399) 
0

>  <lipinski_rule_of_five_violations>  (399) 
1

>  <aromatic_rings_count>  (399) 
0

>  <qed_drug_likeliness>  (399) 
0.49

>  <formal_charge>  (399) 
0

>  <fractioncsp3>  (399) 
0.65

>  <number_of_minimal_rings>  (399) 
2

>  <van_der_walls_volume>  (399) 
318.54

>  <contains_sugar>  (399) 
False

>  <contains_ring_sugars>  (399) 
False

>  <contains_linear_sugars>  (399) 
False

>  <murcko_framework>  (399) 
O1C2CCC=CCCC=CCCCCC12

>  <np_likeness>  (399) 
2.97

>  <chemical_class>  (399) 
Prenol lipids

>  <chemical_sub_class>  (399) 
Sesquiterpenoids

>  <chemical_super_class>  (399) 
Lipids and lipid-like molecules

>  <direct_parent_classification>  (399) 
Sesquiterpenoids

>  <np_classifier_pathway>  (399) 
Terpenoids

>  <np_classifier_superclass>  (399) 
Diterpenoids

>  <np_classifier_class>  (399) 
Cembrane diterpenoids

>  <np_classifier_is_glycoside>  (399) 
False

>  <organisms>  (399) 
Leptogorgia laxa

>  <collections>  (399) 
BIOFACQUIM|CMNPD|Latin America dataset|NPASS

>  <dois>  (399) 
10.1021/np8002639|10.1039/b906091j

>  <synonyms>  (399) 
CHEMBL496264|(1R|4Z|8E|12R|14R)-1|5|9-Trimethyl-12-prop-1-en-2-yl-15-oxabicyclo12.1.0pentadeca-4|8-dien-3-one|Leptodienone A

>  <cas>  (399) 
nan

$$$$

     RDKit          2D

 32 36  0  0  0  0  0  0  0  0999 V2000
   -1.0691    4.4455    0.0000 C   0  0  0  0  0  0  0  0  0  0  0  0
    0.1588    3.5840    0.0000 C   0  0  0  0  0  0  0  0  0  0  0  0
    1.5188    4.2166    0.0000 C   0  0  0  0  0  0  0  0  0  0  0  0
    0.0266    2.0898    0.0000 C   0  0  0  0  0  0  0  0  0  0  0  0
    1.4457    1.6039    0.0000 C   0  0  0  0  0  0  0  0  0  0  0  0
    2.4764    0.5142    0.0000 C   0  0  0  0  0  0  0  0  0  0  0  0
    3.9174    0.0974    0.0000 C   0  0  0  0  0  0  0  0  0  0  0  0
    5.1015    1.0181    0.0000 C   0  0  0  0  0  0  0  0  0  0  0  0
    4.8962    2.5040    0.0000 O   0  0  0  0  0  0  0  0  0  0  0  0
    6.4910    0.4530    0.0000 O   0  0  0  0  0  0  0  0  0  0  0  0
    7.6751    1.3738    0.0000 C   0  0  0  0  0  0  0  0  0  0  0  0
    3.9663   -1.4018    0.0000 C   0  0  0  0  0  0  0  0  0  0  0  0
    2.5714   -2.3971    0.0000 C   0  0  0  0  0  0  0  0  0  0  0  0
    2.8827   -0.9298    0.0000 O   0  0  0  0  0  0  0  0  0  0  0  0
    1.6138   -3.5517    0.0000 C   0  0  0  0  0  0  0  0  0  0  0  0
    1.4216   -5.0393    0.0000 O   0  0  0  0  0  0  0  0  0  0  0  0
    0.2294   -4.1290    0.0000 C   0  0  0  0  0  0  0  0  0  0  0  0
   -0.3133   -5.5274    0.0000 C   0  0  0  0  0  0  0  0  0  0  0  0
   -1.2648   -3.9969    0.0000 C   0  0  0  0  0  0  0  0  0  0  0  0
   -2.5264   -3.1855    0.0000 C   0  0  0  0  0  0  0  0  0  0  0  0
   -2.9216   -1.7660    0.0000 O   0  0  0  0  0  0  0  0  0  0  0  0
   -2.9127   -1.8279    0.0000 C   0  0  0  0  0  0  0  0  0  0  0  0
   -5.8384   -1.1616    0.0000 O   0  0  0  0  0  0  0  0  0  0  0  0
   -3.3153   -0.3815    0.0000 C   0  0  0  0  0  0  0  0  0  0  0  0
   -4.5892   -1.1734    0.0000 O   0  0  0  0  0  0  0  0  0  0  0  0
   -3.2664   -1.8807    0.0000 C   0  0  0  0  0  0  0  0  0  0  0  0
   -2.6618    0.9687    0.0000 C   0  0  0  0  0  0  0  0  0  0  0  0
   -3.8164    1.9263    0.0000 O   0  0  0  0  0  0  0  0  0  0  0  0
   -3.5645    3.4050    0.0000 C   0  0  0  0  0  0  0  0  0  0  0  0
   -4.7191    4.3625    0.0000 C   0  0  0  0  0  0  0  0  0  0  0  0
   -2.1579    3.9261    0.0000 O   0  0  0  0  0  0  0  0  0  0  0  0
   -1.4558    1.8606    0.0000 C   0  0  0  0  0  0  0  0  0  0  0  0
  1  2  2  0
  2  3  1  0
  4  2  1  1
  4  5  1  0
  5  6  1  0
  6  7  2  0
  7  8  1  0
  8  9  2  0
  8 10  1  0
 10 11  1  0
  7 12  1  0
 12 13  2  0
 13 14  1  0
 13 15  1  0
 15 16  1  1
 16 17  1  0
 17 18  1  1
 17 19  1  0
 20 19  1  1
 20 21  1  0
 21 22  1  0
 22 23  2  0
 22 24  1  0
 24 25  1  6
 26 25  1  6
 24 27  1  0
 27 28  1  6
 28 29  1  0
 29 30  1  0
 29 31  2  0
 27 32  1  0
 32  4  1  0
 14  6  1  0
 17 15  1  0
 26 20  1  0
 26 24  1  0
M  END
>  <identifier>  (400) 
CNP0078231.1

>  <canonical_smiles>  (400) 
C=C(C)[C@H]1CC2=C(C(=O)OC)C=C(O2)[C@H]2O[C@]2(C)C[C@@H]2OC(=O)[C@]3(O[C@@H]23)[C@H](OC(C)=O)C1

>  <standard_inchi>  (400) 
InChI=1S/C23H26O9/c1-10(2)12-6-14-13(20(25)27-5)8-15(29-14)18-22(4,31-18)9-16-19-23(32-19,21(26)30-16)17(7-12)28-11(3)24/h8,12,16-19H,1,6-7,9H2,2-5H3/t12-,16-,17+,18+,19-,22+,23-/m0/s1

>  <standard_inchi_key>  (400) 
QFVLPFJFNHETFU-XFWUOHGQSA-N

>  <name>  (400) 
lopholide

>  <iupac_name>  (400) 
methyl (1~{S},2~{R},4~{R},10~{S},12~{R},14~{S},15~{S})-2-acetoxy-4-isopropenyl-12-methyl-17-oxo-11,16,18,19-tetraoxapentacyclo[12.2.2.1^{6,9}.0^{1,15}.0^{10,12}]nonadeca-6,8-diene-7-carboxylate

>  <annotation_level>  (400) 
5

>  <total_atom_count>  (400) 
58

>  <heavy_atom_count>  (400) 
32

>  <molecular_weight>  (400) 
446.45

>  <exact_molecular_weight>  (400) 
446.15768

>  <molecular_formula>  (400) 
C23H26O9

>  <alogp>  (400) 
2.42

>  <topological_polar_surface_area>  (400) 
117.10

>  <rotatable_bond_count>  (400) 
3

>  <hydrogen_bond_acceptors>  (400) 
9

>  <hydrogen_bond_donors>  (400) 
0

>  <hydrogen_bond_acceptors_lipinski>  (400) 
9

>  <hydrogen_bond_donors_lipinski>  (400) 
0

>  <lipinski_rule_of_five_violations>  (400) 
0

>  <aromatic_rings_count>  (400) 
1

>  <qed_drug_likeliness>  (400) 
0.30

>  <formal_charge>  (400) 
0

>  <fractioncsp3>  (400) 
0.61

>  <number_of_minimal_rings>  (400) 
5

>  <van_der_walls_volume>  (400) 
390.53

>  <contains_sugar>  (400) 
False

>  <contains_ring_sugars>  (400) 
False

>  <contains_linear_sugars>  (400) 
False

>  <murcko_framework>  (400) 
o1c2ccc1C3OC3CC4OCC5(OC45)CCCC2

>  <np_likeness>  (400) 
2.98

>  <chemical_class>  (400) 
Carboxylic acids and derivatives

>  <chemical_sub_class>  (400) 
Tricarboxylic acids and derivatives

>  <chemical_super_class>  (400) 
Organic acids and derivatives

>  <direct_parent_classification>  (400) 
Tricarboxylic acids and derivatives

>  <np_classifier_pathway>  (400) 
Terpenoids

>  <np_classifier_superclass>  (400) 
Diterpenoids

>  <np_classifier_class>  (400) 
Cembrane diterpenoids

>  <np_classifier_is_glycoside>  (400) 
False

>  <organisms>  (400) 
Leptogorgia alba|Leptogorgia laxa

>  <collections>  (400) 
BIOFACQUIM|CMNPD|Latin America dataset

>  <dois>  (400) 
10.1021/np8002639|10.1039/b603047p

>  <synonyms>  (400) 
CHEMBL465177|Lopholide|lopholide

>  <cas>  (400) 
nan

$$$$

     RDKit          2D

 31 34  0  0  0  0  0  0  0  0999 V2000
    1.6084    4.5487    0.0000 C   0  0  0  0  0  0  0  0  0  0  0  0
    2.1786    3.1613    0.0000 C   0  0  0  0  0  0  0  0  0  0  0  0
    3.6652    2.9615    0.0000 C   0  0  0  0  0  0  0  0  0  0  0  0
    1.2622    1.9738    0.0000 C   0  0  0  0  0  0  0  0  0  0  0  0
   -0.1101    2.5794    0.0000 C   0  0  0  0  0  0  0  0  0  0  0  0
   -1.6067    2.4779    0.0000 C   0  0  0  0  0  0  0  0  0  0  0  0
   -2.9481    3.1491    0.0000 C   0  0  0  0  0  0  0  0  0  0  0  0
   -3.1936    4.6289    0.0000 C   0  0  0  0  0  0  0  0  0  0  0  0
   -2.0348    5.5814    0.0000 O   0  0  0  0  0  0  0  0  0  0  0  0
   -4.0010    2.0807    0.0000 C   0  0  0  0  0  0  0  0  0  0  0  0
   -3.6512    0.4032    0.0000 C   0  0  0  0  0  0  0  0  0  0  0  0
   -2.8847    1.6925    0.0000 O   0  0  0  0  0  0  0  0  0  0  0  0
   -3.7309   -1.0947    0.0000 C   0  0  0  0  0  0  0  0  0  0  0  0
   -5.2043   -1.3758    0.0000 O   0  0  0  0  0  0  0  0  0  0  0  0
   -3.1052   -2.4580    0.0000 C   0  0  0  0  0  0  0  0  0  0  0  0
   -3.5410   -3.8933    0.0000 C   0  0  0  0  0  0  0  0  0  0  0  0
   -4.6018   -2.5595    0.0000 O   0  0  0  0  0  0  0  0  0  0  0  0
   -1.9177   -3.3744    0.0000 C   0  0  0  0  0  0  0  0  0  0  0  0
   -0.4404   -3.6340    0.0000 C   0  0  0  0  0  0  0  0  0  0  0  0
    0.8129   -2.8591    0.0000 O   0  0  0  0  0  0  0  0  0  0  0  0
    0.7644   -2.8985    0.0000 C   0  0  0  0  0  0  0  0  0  0  0  0
    3.3660   -4.3936    0.0000 O   0  0  0  0  0  0  0  0  0  0  0  0
    2.0413   -2.1089    0.0000 C   0  0  0  0  0  0  0  0  0  0  0  0
    2.4401   -3.5549    0.0000 O   0  0  0  0  0  0  0  0  0  0  0  0
    0.9884   -3.1773    0.0000 C   0  0  0  0  0  0  0  0  0  0  0  0
    2.4770   -0.6736    0.0000 C   0  0  0  0  0  0  0  0  0  0  0  0
    3.9749   -0.7532    0.0000 O   0  0  0  0  0  0  0  0  0  0  0  0
    4.7928    0.5042    0.0000 C   0  0  0  0  0  0  0  0  0  0  0  0
    6.2907    0.4246    0.0000 C   0  0  0  0  0  0  0  0  0  0  0  0
    4.1128    1.8412    0.0000 O   0  0  0  0  0  0  0  0  0  0  0  0
    2.1959    0.7999    0.0000 C   0  0  0  0  0  0  0  0  0  0  0  0
  1  2  2  0
  2  3  1  0
  4  2  1  6
  4  5  1  0
  5  6  1  0
  6  7  2  0
  7  8  1  0
  8  9  2  0
  7 10  1  0
 10 11  2  0
 11 12  1  0
 11 13  1  0
 13 14  1  1
 13 15  1  0
 15 16  1  6
 15 17  1  0
 15 18  1  0
 19 18  1  6
 19 20  1  0
 20 21  1  0
 21 22  2  0
 21 23  1  0
 23 24  1  1
 25 24  1  1
 23 26  1  0
 26 27  1  1
 27 28  1  0
 28 29  1  0
 28 30  2  0
 26 31  1  0
 31  4  1  0
 12  6  1  0
 25 19  1  0
 25 23  1  0
M  END
>  <identifier>  (401) 
CNP0296271.2

>  <canonical_smiles>  (401) 
C=C(C)[C@H]1CC2=C(C=O)C=C(O2)[C@H](O)[C@](C)(O)C[C@@H]2OC(=O)[C@]3(O[C@@H]23)[C@H](OC(C)=O)C1

>  <standard_inchi>  (401) 
InChI=1S/C22H26O9/c1-10(2)12-5-14-13(9-23)6-15(29-14)18(25)21(4,27)8-16-19-22(31-19,20(26)30-16)17(7-12)28-11(3)24/h6,9,12,16-19,25,27H,1,5,7-8H2,2-4H3/t12-,16-,17+,18-,19-,21+,22-/m0/s1

>  <standard_inchi_key>  (401) 
HDOFLMSTYCZGEX-QSJUJLHKSA-N

>  <name>  (401) 
lophodiol B

>  <iupac_name>  (401) 
[(1~{S},2~{R},4~{R},10~{R},11~{R},13~{S},14~{S})-7-formyl-10,11-dihydroxy-4-isopropenyl-11-methyl-16-oxo-15,17,18-trioxatetracyclo[11.2.2.1^{6,9}.0^{1,14}]octadeca-6,8-dien-2-yl] acetate

>  <annotation_level>  (401) 
5

>  <total_atom_count>  (401) 
57

>  <heavy_atom_count>  (401) 
31

>  <molecular_weight>  (401) 
434.44

>  <exact_molecular_weight>  (401) 
434.15768

>  <molecular_formula>  (401) 
C22H26O9

>  <alogp>  (401) 
1.40

>  <topological_polar_surface_area>  (401) 
135.80

>  <rotatable_bond_count>  (401) 
3

>  <hydrogen_bond_acceptors>  (401) 
9

>  <hydrogen_bond_donors>  (401) 
2

>  <hydrogen_bond_acceptors_lipinski>  (401) 
9

>  <hydrogen_bond_donors_lipinski>  (401) 
2

>  <lipinski_rule_of_five_violations>  (401) 
0

>  <aromatic_rings_count>  (401) 
1

>  <qed_drug_likeliness>  (401) 
0.31

>  <formal_charge>  (401) 
0

>  <fractioncsp3>  (401) 
0.59

>  <number_of_minimal_rings>  (401) 
4

>  <van_der_walls_volume>  (401) 
377.17

>  <contains_sugar>  (401) 
False

>  <contains_ring_sugars>  (401) 
False

>  <contains_linear_sugars>  (401) 
False

>  <murcko_framework>  (401) 
o1c2ccc1CCCC3OCC4(OC34)CCCC2

>  <np_likeness>  (401) 
3.21

>  <chemical_class>  (401) 
Organooxygen compounds

>  <chemical_sub_class>  (401) 
Carbonyl compounds

>  <chemical_super_class>  (401) 
Organic oxygen compounds

>  <direct_parent_classification>  (401) 
Aryl-aldehydes

>  <np_classifier_pathway>  (401) 
Terpenoids

>  <np_classifier_superclass>  (401) 
Diterpenoids

>  <np_classifier_class>  (401) 
Cembrane diterpenoids

>  <np_classifier_is_glycoside>  (401) 
False

>  <organisms>  (401) 
Leptogorgia laxa|Leptogorgia peruana|Lophogorgia peruana

>  <collections>  (401) 
BIOFACQUIM|CMNPD|KNApSaCK|Latin America dataset|NPASS

>  <dois>  (401) 
10.1021/np060388x|10.1021/np8002639|10.1039/b701534h

>  <synonyms>  (401) 
CHEMBL465762|Lophodiol B

>  <cas>  (401) 
nan

$$$$

     RDKit          2D

 24 25  0  0  0  0  0  0  0  0999 V2000
    3.6636    3.9152    0.0000 C   0  0  0  0  0  0  0  0  0  0  0  0
    3.7573    2.4181    0.0000 C   0  0  0  0  0  0  0  0  0  0  0  0
    5.1007    1.7507    0.0000 C   0  0  0  0  0  0  0  0  0  0  0  0
    2.5077    1.5884    0.0000 C   0  0  0  0  0  0  0  0  0  0  0  0
    1.4207    2.6221    0.0000 C   0  0  0  0  0  0  0  0  0  0  0  0
   -0.0071    3.0818    0.0000 C   0  0  0  0  0  0  0  0  0  0  0  0
   -1.8360    2.5158    0.0000 C   0  0  0  0  0  0  0  0  0  0  0  0
   -2.0334    1.0288    0.0000 C   0  0  0  0  0  0  0  0  0  0  0  0
   -3.5085    0.7571    0.0000 C   0  0  0  0  0  0  0  0  0  0  0  0
   -3.6390   -0.7372    0.0000 C   0  0  0  0  0  0  0  0  0  0  0  0
   -3.1082   -2.1402    0.0000 C   0  0  0  0  0  0  0  0  0  0  0  0
   -4.3578   -2.9699    0.0000 C   0  0  0  0  0  0  0  0  0  0  0  0
   -1.6804   -2.5999    0.0000 C   0  0  0  0  0  0  0  0  0  0  0  0
   -0.5934   -3.6336    0.0000 C   0  0  0  0  0  0  0  0  0  0  0  0
   -1.3593   -4.9233    0.0000 O   0  0  0  0  0  0  0  0  0  0  0  0
    0.8925   -3.4283    0.0000 C   0  0  0  0  0  0  0  0  0  0  0  0
    2.1421   -2.5986    0.0000 C   0  0  0  0  0  0  0  0  0  0  0  0
    3.2291   -3.6323    0.0000 C   0  0  0  0  0  0  0  0  0  0  0  0
    2.9080   -1.3089    0.0000 C   0  0  0  0  0  0  0  0  0  0  0  0
    4.3358   -1.7686    0.0000 O   0  0  0  0  0  0  0  0  0  0  0  0
    3.0385    0.1855    0.0000 C   0  0  0  0  0  0  0  0  0  0  0  0
   -4.2229    2.0761    0.0000 O   0  0  0  0  0  0  0  0  0  0  0  0
   -3.1892    3.1630    0.0000 C   0  0  0  0  0  0  0  0  0  0  0  0
   -3.4609    4.6382    0.0000 O   0  0  0  0  0  0  0  0  0  0  0  0
  1  2  2  0
  2  3  1  0
  4  2  1  1
  4  5  1  0
  5  6  1  0
  6  7  1  0
  7  8  2  0
  8  9  1  0
  9 10  1  6
 10 11  1  0
 11 12  1  0
 11 13  2  0
 13 14  1  0
 14 15  2  0
 14 16  1  0
 16 17  2  0
 17 18  1  0
 17 19  1  0
 19 20  2  0
 19 21  1  0
  9 22  1  0
 22 23  1  0
 23 24  2  0
 21  4  1  0
 23  7  1  0
M  END
>  <identifier>  (402) 
CNP0127509.1

>  <canonical_smiles>  (402) 
C=C(C)[C@@H]1CCC2=C[C@H](C/C(C)=C/C(=O)/C=C(/C)C(=O)C1)OC2=O

>  <standard_inchi>  (402) 
InChI=1S/C20H24O4/c1-12(2)15-5-6-16-10-18(24-20(16)23)8-13(3)7-17(21)9-14(4)19(22)11-15/h7,9-10,15,18H,1,5-6,8,11H2,2-4H3/b13-7+,14-9-/t15-,18+/m1/s1

>  <standard_inchi_key>  (402) 
VOJXZPBBXJWSIE-CCLTYUHLSA-N

>  <name>  (402) 
nan

>  <iupac_name>  (402) 
(4~{R},7~{Z},10~{E},13~{S})-4-isopropenyl-7,11-dimethyl-14-oxabicyclo[11.2.1]hexadeca-1(16),7,10-triene-6,9,15-trione

>  <annotation_level>  (402) 
5

>  <total_atom_count>  (402) 
48

>  <heavy_atom_count>  (402) 
24

>  <molecular_weight>  (402) 
328.41

>  <exact_molecular_weight>  (402) 
328.16746

>  <molecular_formula>  (402) 
C20H24O4

>  <alogp>  (402) 
3.64

>  <topological_polar_surface_area>  (402) 
60.44

>  <rotatable_bond_count>  (402) 
1

>  <hydrogen_bond_acceptors>  (402) 
4

>  <hydrogen_bond_donors>  (402) 
0

>  <hydrogen_bond_acceptors_lipinski>  (402) 
4

>  <hydrogen_bond_donors_lipinski>  (402) 
0

>  <lipinski_rule_of_five_violations>  (402) 
0

>  <aromatic_rings_count>  (402) 
0

>  <qed_drug_likeliness>  (402) 
0.54

>  <formal_charge>  (402) 
0

>  <fractioncsp3>  (402) 
0.45

>  <number_of_minimal_rings>  (402) 
2

>  <van_der_walls_volume>  (402) 
316.41

>  <contains_sugar>  (402) 
False

>  <contains_ring_sugars>  (402) 
False

>  <contains_linear_sugars>  (402) 
False

>  <murcko_framework>  (402) 
O1CC2=CC1CC=CCC=CCCCCC2

>  <np_likeness>  (402) 
2.59

>  <chemical_class>  (402) 
Prenol lipids

>  <chemical_sub_class>  (402) 
Terpene lactones

>  <chemical_super_class>  (402) 
Lipids and lipid-like molecules

>  <direct_parent_classification>  (402) 
Terpene lactones

>  <np_classifier_pathway>  (402) 
Terpenoids

>  <np_classifier_superclass>  (402) 
Diterpenoids

>  <np_classifier_class>  (402) 
Cembrane diterpenoids

>  <np_classifier_is_glycoside>  (402) 
False

>  <organisms>  (402) 
Gersemia rubiformis|Leptogorgia laxa

>  <collections>  (402) 
BIOFACQUIM|CMNPD|Latin America dataset|Super Natural II

>  <dois>  (402) 
10.1021/np8002639|10.1039/np9880500613

>  <synonyms>  (402) 
Lophodione|epilophodione

>  <cas>  (402) 
nan

$$$$

     RDKit          2D

 30 34  0  0  0  0  0  0  0  0999 V2000
   -2.4346    3.9274    0.0000 C   0  0  0  0  0  0  0  0  0  0  0  0
   -0.9639    3.6322    0.0000 C   0  0  0  0  0  0  0  0  0  0  0  0
    0.0270    4.7583    0.0000 C   0  0  0  0  0  0  0  0  0  0  0  0
   -0.4842    2.2110    0.0000 C   0  0  0  0  0  0  0  0  0  0  0  0
    1.0105    2.3367    0.0000 C   0  0  0  0  0  0  0  0  0  0  0  0
    2.3925    1.7533    0.0000 C   0  0  0  0  0  0  0  0  0  0  0  0
    3.8794    1.9510    0.0000 C   0  0  0  0  0  0  0  0  0  0  0  0
    4.5934    3.2702    0.0000 C   0  0  0  0  0  0  0  0  0  0  0  0
    6.0928    3.3114    0.0000 O   0  0  0  0  0  0  0  0  0  0  0  0
    4.5269    0.5980    0.0000 C   0  0  0  0  0  0  0  0  0  0  0  0
    3.6499   -0.8741    0.0000 C   0  0  0  0  0  0  0  0  0  0  0  0
    3.3450    0.5945    0.0000 O   0  0  0  0  0  0  0  0  0  0  0  0
    3.2373   -2.3163    0.0000 C   0  0  0  0  0  0  0  0  0  0  0  0
    3.6594   -3.7557    0.0000 O   0  0  0  0  0  0  0  0  0  0  0  0
    2.2018   -3.4015    0.0000 C   0  0  0  0  0  0  0  0  0  0  0  0
    2.2672   -4.9001    0.0000 C   0  0  0  0  0  0  0  0  0  0  0  0
    0.7806   -3.8813    0.0000 C   0  0  0  0  0  0  0  0  0  0  0  0
   -0.7007   -3.6456    0.0000 C   0  0  0  0  0  0  0  0  0  0  0  0
   -1.6333   -2.5048    0.0000 O   0  0  0  0  0  0  0  0  0  0  0  0
   -1.6003   -2.5579    0.0000 C   0  0  0  0  0  0  0  0  0  0  0  0
   -4.5470   -3.1241    0.0000 O   0  0  0  0  0  0  0  0  0  0  0  0
   -2.5504   -1.3954    0.0000 C   0  0  0  0  0  0  0  0  0  0  0  0
   -3.3984   -2.6327    0.0000 O   0  0  0  0  0  0  0  0  0  0  0  0
   -1.9029   -2.7484    0.0000 C   0  0  0  0  0  0  0  0  0  0  0  0
   -2.4950    0.1036    0.0000 C   0  0  0  0  0  0  0  0  0  0  0  0
   -3.9371    0.5161    0.0000 O   0  0  0  0  0  0  0  0  0  0  0  0
   -4.3009    1.9713    0.0000 C   0  0  0  0  0  0  0  0  0  0  0  0
   -5.7431    2.3839    0.0000 C   0  0  0  0  0  0  0  0  0  0  0  0
   -3.2226    3.0140    0.0000 O   0  0  0  0  0  0  0  0  0  0  0  0
   -1.7493    1.4051    0.0000 C   0  0  0  0  0  0  0  0  0  0  0  0
  1  2  2  0
  2  3  1  0
  4  2  1  6
  4  5  1  0
  5  6  1  0
  6  7  2  0
  7  8  1  0
  8  9  2  0
  7 10  1  0
 10 11  2  0
 11 12  1  0
 11 13  1  0
 13 14  1  6
 14 15  1  0
 15 16  1  1
 15 17  1  0
 18 17  1  6
 18 19  1  0
 19 20  1  0
 20 21  2  0
 20 22  1  0
 22 23  1  1
 24 23  1  1
 22 25  1  0
 25 26  1  1
 26 27  1  0
 27 28  1  0
 27 29  2  0
 25 30  1  0
 30  4  1  0
 12  6  1  0
 15 13  1  0
 24 18  1  0
 24 22  1  0
M  END
>  <identifier>  (403) 
CNP0314603.1

>  <canonical_smiles>  (403) 
C=C(C)[C@@H]1CC2=C(C=O)C=C(O2)[C@@H]2O[C@]2(C)C[C@H]2OC(=O)[C@@]3(O[C@H]23)[C@@H](OC(C)=O)C1

>  <standard_inchi>  (403) 
InChI=1S/C22H24O8/c1-10(2)12-5-14-13(9-23)6-15(27-14)18-21(4,29-18)8-16-19-22(30-19,20(25)28-16)17(7-12)26-11(3)24/h6,9,12,16-19H,1,5,7-8H2,2-4H3/t12-,16-,17+,18+,19-,21-,22-/m1/s1

>  <standard_inchi_key>  (403) 
KGRIGHVGXOOCOY-ALYDTWDZSA-N

>  <name>  (403) 
Lophotoxin

>  <iupac_name>  (403) 
[(1~{R},2~{S},4~{S},10~{R},12~{R},14~{R},15~{R})-7-formyl-4-isopropenyl-12-methyl-17-oxo-11,16,18,19-tetraoxapentacyclo[12.2.2.1^{6,9}.0^{1,15}.0^{10,12}]nonadeca-6,8-dien-2-yl] acetate

>  <annotation_level>  (403) 
5

>  <total_atom_count>  (403) 
54

>  <heavy_atom_count>  (403) 
30

>  <molecular_weight>  (403) 
416.43

>  <exact_molecular_weight>  (403) 
416.14712

>  <molecular_formula>  (403) 
C22H24O8

>  <alogp>  (403) 
2.45

>  <topological_polar_surface_area>  (403) 
107.87

>  <rotatable_bond_count>  (403) 
3

>  <hydrogen_bond_acceptors>  (403) 
8

>  <hydrogen_bond_donors>  (403) 
0

>  <hydrogen_bond_acceptors_lipinski>  (403) 
8

>  <hydrogen_bond_donors_lipinski>  (403) 
0

>  <lipinski_rule_of_five_violations>  (403) 
0

>  <aromatic_rings_count>  (403) 
1

>  <qed_drug_likeliness>  (403) 
0.32

>  <formal_charge>  (403) 
0

>  <fractioncsp3>  (403) 
0.59

>  <number_of_minimal_rings>  (403) 
5

>  <van_der_walls_volume>  (403) 
364.10

>  <contains_sugar>  (403) 
False

>  <contains_ring_sugars>  (403) 
False

>  <contains_linear_sugars>  (403) 
False

>  <murcko_framework>  (403) 
o1c2ccc1C3OC3CC4OCC5(OC45)CCCC2

>  <np_likeness>  (403) 
3.30

>  <chemical_class>  (403) 
Organooxygen compounds

>  <chemical_sub_class>  (403) 
Carbonyl compounds

>  <chemical_super_class>  (403) 
Organic oxygen compounds

>  <direct_parent_classification>  (403) 
Aryl-aldehydes

>  <np_classifier_pathway>  (403) 
Terpenoids

>  <np_classifier_superclass>  (403) 
Diterpenoids

>  <np_classifier_class>  (403) 
Cembrane diterpenoids

>  <np_classifier_is_glycoside>  (403) 
False

>  <organisms>  (403) 
Leptogorgia alba|Leptogorgia laxa|Lophogorgia peruana|Lophogorgia violacea

>  <collections>  (403) 
BIOFACQUIM|KNApSaCK|Latin America dataset

>  <dois>  (403) 
10.1021/np8002639

>  <synonyms>  (403) 
78697-56-0|BRN 4339458|6LL2IET058|11|16|18|19-Tetraoxapentacyclo(12.2.2.16|9.01|15.010|12)nonadeca-6|8-diene-7-carboxaldehyde| 2-(acetyloxy)-12-methyl-4-(1-methylethenyl)-17-oxo-| (1R|2S|4S|10R|12R|14R|15R)-|(22R|23R|41R|44R|45R|5S|7S)-14-formyl-23-methyl-42-oxo-7-(prop-1-en-2-yl)-43|46-dioxa-1(2|5)-furana-2(2|3)-oxirana-4(4|1)-bicyclo3.1.0hexanacyclooctaphane-5-yl acetate|(1R|2S|4S|10R|12R|14R|15R)-7-formyl-12-methyl-17-oxo-4-prop-1-en-2-yl-11|16|18|19-tetraoxapentacyclo12.2.2.16|9.01|15.010|12nonadeca-6|8-dien-2-yl acetate|UNII-6LL2IET058|LOPHOTOXIN MI|AKOS040752671|Lophotoxin

>  <cas>  (403) 
78697-56-0

$$$$

     RDKit          2D

 19 20  0  0  0  0  0  0  0  0999 V2000
   -1.2688   -2.4847    0.0000 C   0  0  0  0  0  0  0  0  0  0  0  0
   -2.4296   -1.5347    0.0000 C   0  0  0  0  0  0  0  0  0  0  0  0
   -3.8327   -2.0650    0.0000 C   0  0  0  0  0  0  0  0  0  0  0  0
   -2.1873   -0.0544    0.0000 C   0  0  0  0  0  0  0  0  0  0  0  0
   -3.6872   -0.0728    0.0000 O   0  0  0  0  0  0  0  0  0  0  0  0
   -2.4659    1.4195    0.0000 C   0  0  0  0  0  0  0  0  0  0  0  0
   -1.3287    2.3977    0.0000 C   0  0  0  0  0  0  0  0  0  0  0  0
    0.0870    1.9020    0.0000 C   0  0  0  0  0  0  0  0  0  0  0  0
   -0.1915    3.3759    0.0000 C   0  0  0  0  0  0  0  0  0  0  0  0
    1.2242    2.8802    0.0000 C   0  0  0  0  0  0  0  0  0  0  0  0
    2.6399    2.3845    0.0000 C   0  0  0  0  0  0  0  0  0  0  0  0
    2.9185    0.9106    0.0000 C   0  0  0  0  0  0  0  0  0  0  0  0
    1.7813   -0.0676    0.0000 C   0  0  0  0  0  0  0  0  0  0  0  0
    1.0473   -1.3757    0.0000 C   0  0  0  0  0  0  0  0  0  0  0  0
    2.9421   -1.0176    0.0000 N   0  0  0  0  0  0  0  0  0  0  0  0
    2.6998   -2.4979    0.0000 C   0  0  0  0  0  0  0  0  0  0  0  0
    2.4575   -3.9782    0.0000 S   0  0  0  0  0  0  0  0  0  0  0  0
    0.3656    0.4281    0.0000 C   0  0  0  0  0  0  0  0  0  0  0  0
   -0.7716   -0.5501    0.0000 C   0  0  0  0  0  0  0  0  0  0  0  0
  1  2  2  0
  2  3  1  0
  2  4  1  0
  4  5  1  1
  4  6  1  0
  6  7  1  0
  7  8  1  0
  8  9  1  6
  8 10  1  0
 10 11  1  0
 11 12  1  0
 12 13  1  0
 13 14  1  6
 13 15  1  0
 15 16  2  0
 16 17  2  0
 13 18  1  0
 18 19  1  6
 19  4  1  0
 18  8  1  0
M  END
>  <identifier>  (404) 
CNP0155037.1

>  <canonical_smiles>  (404) 
C=C(C)[C@]1(O)CC[C@@]2(C)CCC[C@@](C)(N=C=S)[C@@H]2C1

>  <standard_inchi>  (404) 
InChI=1S/C16H25NOS/c1-12(2)16(18)9-8-14(3)6-5-7-15(4,17-11-19)13(14)10-16/h13,18H,1,5-10H2,2-4H3/t13-,14-,15-,16+/m1/s1

>  <standard_inchi_key>  (404) 
KKOPPOVHLGSDFF-FPCVCCKLSA-N

>  <name>  (404) 
axinisothiocyanate M

>  <iupac_name>  (404) 
(2~{S},4~{a}~{R},8~{R},8~{a}~{R})-2-isopropenyl-8-isothiocyanato-4~{a},8-dimethyl-decalin-2-ol

>  <annotation_level>  (404) 
5

>  <total_atom_count>  (404) 
44

>  <heavy_atom_count>  (404) 
19

>  <molecular_weight>  (404) 
279.45

>  <exact_molecular_weight>  (404) 
279.16569

>  <molecular_formula>  (404) 
C16H25NOS

>  <alogp>  (404) 
4.15

>  <topological_polar_surface_area>  (404) 
32.59

>  <rotatable_bond_count>  (404) 
2

>  <hydrogen_bond_acceptors>  (404) 
3

>  <hydrogen_bond_donors>  (404) 
1

>  <hydrogen_bond_acceptors_lipinski>  (404) 
3

>  <hydrogen_bond_donors_lipinski>  (404) 
1

>  <lipinski_rule_of_five_violations>  (404) 
0

>  <aromatic_rings_count>  (404) 
0

>  <qed_drug_likeliness>  (404) 
0.47

>  <formal_charge>  (404) 
0

>  <fractioncsp3>  (404) 
0.81

>  <number_of_minimal_rings>  (404) 
2

>  <van_der_walls_volume>  (404) 
273.04

>  <contains_sugar>  (404) 
False

>  <contains_ring_sugars>  (404) 
False

>  <contains_linear_sugars>  (404) 
False

>  <murcko_framework>  (404) 
C1CCC2CCCCC2C1

>  <np_likeness>  (404) 
2.84

>  <chemical_class>  (404) 
Prenol lipids

>  <chemical_sub_class>  (404) 
Sesquiterpenoids

>  <chemical_super_class>  (404) 
Lipids and lipid-like molecules

>  <direct_parent_classification>  (404) 
Eudesmane, isoeudesmane or cycloeudesmane sesquiterpenoids

>  <np_classifier_pathway>  (404) 
Terpenoids

>  <np_classifier_superclass>  (404) 
Sesquiterpenoids

>  <np_classifier_class>  (404) 
Gorgonane sesquiterpenoids

>  <np_classifier_is_glycoside>  (404) 
False

>  <organisms>  (404) 
Astragalus lentiginosus|Axinyssa isabela|Pelargonium capitatum|Salvia aspera

>  <collections>  (404) 
BIOFACQUIM|CMNPD|KNApSaCK|Latin America dataset|NPASS|Super Natural II

>  <dois>  (404) 
10.1021/np800465n|10.1039/b906091j

>  <synonyms>  (404) 
CHEMBL460147|Axinisothiocyanate M

>  <cas>  (404) 
nan

$$$$

     RDKit          2D

 20 21  0  0  0  0  0  0  0  0999 V2000
   -0.6619   -2.6714    0.0000 C   0  0  0  0  0  0  0  0  0  0  0  0
   -1.9494   -1.9017    0.0000 C   0  0  0  0  0  0  0  0  0  0  0  0
   -3.2597   -2.6318    0.0000 C   0  0  0  0  0  0  0  0  0  0  0  0
   -1.9265   -0.4018    0.0000 C   0  0  0  0  0  0  0  0  0  0  0  0
   -3.4075   -0.6398    0.0000 O   0  0  0  0  0  0  0  0  0  0  0  0
   -4.3541    0.5238    0.0000 O   0  0  0  0  0  0  0  0  0  0  0  0
   -2.4181    1.0154    0.0000 C   0  0  0  0  0  0  0  0  0  0  0  0
   -1.4365    2.1496    0.0000 C   0  0  0  0  0  0  0  0  0  0  0  0
    0.0366    1.8667    0.0000 C   0  0  0  0  0  0  0  0  0  0  0  0
   -0.4549    3.2839    0.0000 C   0  0  0  0  0  0  0  0  0  0  0  0
    1.0182    3.0009    0.0000 C   0  0  0  0  0  0  0  0  0  0  0  0
    2.4912    2.7180    0.0000 C   0  0  0  0  0  0  0  0  0  0  0  0
    2.9827    1.3008    0.0000 C   0  0  0  0  0  0  0  0  0  0  0  0
    2.0012    0.1666    0.0000 C   0  0  0  0  0  0  0  0  0  0  0  0
    1.4667   -1.2350    0.0000 C   0  0  0  0  0  0  0  0  0  0  0  0
    3.2886   -0.6031    0.0000 N   0  0  0  0  0  0  0  0  0  0  0  0
    3.2658   -2.1030    0.0000 C   0  0  0  0  0  0  0  0  0  0  0  0
    3.2430   -3.6028    0.0000 S   0  0  0  0  0  0  0  0  0  0  0  0
    0.5281    0.4495    0.0000 C   0  0  0  0  0  0  0  0  0  0  0  0
   -0.4535   -0.6848    0.0000 C   0  0  0  0  0  0  0  0  0  0  0  0
  1  2  2  0
  2  3  1  0
  2  4  1  0
  4  5  1  1
  5  6  1  0
  4  7  1  0
  7  8  1  0
  8  9  1  0
  9 10  1  6
  9 11  1  0
 11 12  1  0
 12 13  1  0
 13 14  1  0
 14 15  1  6
 14 16  1  0
 16 17  2  0
 17 18  2  0
 14 19  1  0
 19 20  1  6
 20  4  1  0
 19  9  1  0
M  END
>  <identifier>  (405) 
CNP0213336.1

>  <canonical_smiles>  (405) 
C=C(C)[C@]1(OO)CC[C@@]2(C)CCC[C@@](C)(N=C=S)[C@@H]2C1

>  <standard_inchi>  (405) 
InChI=1S/C16H25NO2S/c1-12(2)16(19-18)9-8-14(3)6-5-7-15(4,17-11-20)13(14)10-16/h13,18H,1,5-10H2,2-4H3/t13-,14-,15-,16+/m1/s1

>  <standard_inchi_key>  (405) 
LXBUUBJVUIYCJI-FPCVCCKLSA-N

>  <name>  (405) 
axinisothiocyanate N

>  <iupac_name>  (405) 
(1~{R},4~{a}~{R},7~{S},8~{a}~{R})-7-hydroperoxy-7-isopropenyl-1-isothiocyanato-1,4~{a}-dimethyl-decalin

>  <annotation_level>  (405) 
5

>  <total_atom_count>  (405) 
45

>  <heavy_atom_count>  (405) 
20

>  <molecular_weight>  (405) 
295.45

>  <exact_molecular_weight>  (405) 
295.1606

>  <molecular_formula>  (405) 
C16H25NO2S

>  <alogp>  (405) 
4.64

>  <topological_polar_surface_area>  (405) 
41.82

>  <rotatable_bond_count>  (405) 
3

>  <hydrogen_bond_acceptors>  (405) 
4

>  <hydrogen_bond_donors>  (405) 
1

>  <hydrogen_bond_acceptors_lipinski>  (405) 
4

>  <hydrogen_bond_donors_lipinski>  (405) 
1

>  <lipinski_rule_of_five_violations>  (405) 
0

>  <aromatic_rings_count>  (405) 
0

>  <qed_drug_likeliness>  (405) 
0.27

>  <formal_charge>  (405) 
0

>  <fractioncsp3>  (405) 
0.81

>  <number_of_minimal_rings>  (405) 
2

>  <van_der_walls_volume>  (405) 
282.63

>  <contains_sugar>  (405) 
False

>  <contains_ring_sugars>  (405) 
False

>  <contains_linear_sugars>  (405) 
False

>  <murcko_framework>  (405) 
C1CCC2CCCCC2C1

>  <np_likeness>  (405) 
3.00

>  <chemical_class>  (405) 
Prenol lipids

>  <chemical_sub_class>  (405) 
Sesquiterpenoids

>  <chemical_super_class>  (405) 
Lipids and lipid-like molecules

>  <direct_parent_classification>  (405) 
Eudesmane, isoeudesmane or cycloeudesmane sesquiterpenoids

>  <np_classifier_pathway>  (405) 
Terpenoids

>  <np_classifier_superclass>  (405) 
Sesquiterpenoids

>  <np_classifier_class>  (405) 
Gorgonane sesquiterpenoids

>  <np_classifier_is_glycoside>  (405) 
False

>  <organisms>  (405) 
Astragalus lentiginosus|Axinyssa isabela|Pelargonium capitatum|Salvia aspera

>  <collections>  (405) 
BIOFACQUIM|CMNPD|KNApSaCK|Latin America dataset|NPASS|Super Natural II

>  <dois>  (405) 
10.1021/np800465n|10.1039/b906091j

>  <synonyms>  (405) 
CHEMBL460175|Axinisothiocyanate N

>  <cas>  (405) 
nan

$$$$

     RDKit          2D

 21 24  0  0  0  0  0  0  0  0999 V2000
   -5.0162   -1.6819    0.0000 C   0  0  0  0  0  0  0  0  0  0  0  0
   -4.3607   -0.3327    0.0000 O   0  0  0  0  0  0  0  0  0  0  0  0
   -2.8645   -0.2258    0.0000 C   0  0  0  0  0  0  0  0  0  0  0  0
   -2.0238   -1.4681    0.0000 C   0  0  0  0  0  0  0  0  0  0  0  0
   -0.5276   -1.3612    0.0000 C   0  0  0  0  0  0  0  0  0  0  0  0
    0.1279   -0.0120    0.0000 O   0  0  0  0  0  0  0  0  0  0  0  0
   -0.7128    1.2303    0.0000 C   0  0  0  0  0  0  0  0  0  0  0  0
   -0.0573    2.5794    0.0000 C   0  0  0  0  0  0  0  0  0  0  0  0
   -2.2090    1.1234    0.0000 C   0  0  0  0  0  0  0  0  0  0  0  0
   -3.0496    2.3656    0.0000 O   0  0  0  0  0  0  0  0  0  0  0  0
    0.7432    0.8696    0.0000 C   0  0  0  0  0  0  0  0  0  0  0  0
   -1.4036   -0.5661    0.0000 O   0  0  0  0  0  0  0  0  0  0  0  0
    1.9855    1.7102    0.0000 C   0  0  0  0  0  0  0  0  0  0  0  0
    1.8786    3.2064    0.0000 C   0  0  0  0  0  0  0  0  0  0  0  0
    3.3347    1.0547    0.0000 O   0  0  0  0  0  0  0  0  0  0  0  0
    3.4416   -0.4415    0.0000 C   0  0  0  0  0  0  0  0  0  0  0  0
    4.7908   -1.0970    0.0000 O   0  0  0  0  0  0  0  0  0  0  0  0
    2.1993   -1.2821    0.0000 C   0  0  0  0  0  0  0  0  0  0  0  0
    0.8501   -0.6266    0.0000 C   0  0  0  0  0  0  0  0  0  0  0  0
    0.8000   -2.1258    0.0000 O   0  0  0  0  0  0  0  0  0  0  0  0
    2.0733   -2.9187    0.0000 C   0  0  0  0  0  0  0  0  0  0  0  0
  1  2  1  0
  3  2  1  6
  3  4  1  0
  5  4  1  6
  5  6  1  0
  6  7  1  0
  7  8  1  1
  7  9  1  0
  9 10  1  6
  7 11  1  0
 11 12  1  6
 11 13  1  0
 13 14  1  6
 13 15  1  0
 15 16  1  0
 16 17  1  1
 16 18  1  0
 18 19  1  0
 19 20  1  6
 20 21  1  0
  9  3  1  0
 19 11  1  0
 12  3  1  0
 19  5  1  0
M  END
>  <identifier>  (406) 
CNP0262669.1

>  <canonical_smiles>  (406) 
CO[C@]12C[C@@H]3O[C@](C)([C@H]1O)[C@@]1(O2)[C@H](C)O[C@@H](O)C[C@@]31OC

>  <standard_inchi>  (406) 
InChI=1S/C14H22O7/c1-7-14-11(2)10(16)13(18-4,21-14)5-8(20-11)12(14,17-3)6-9(15)19-7/h7-10,15-16H,5-6H2,1-4H3/t7-,8-,9+,10+,11+,12+,13-,14-/m0/s1

>  <standard_inchi_key>  (406) 
IKYAAPKEBRREBQ-BFAGSNKISA-N

>  <name>  (406) 
nan

>  <iupac_name>  (406) 
(1~{S},2~{R},4~{R},6~{S},7~{S},9~{S},10~{R},11~{R})-2,9-dimethoxy-6,11-dimethyl-5,8,12-trioxatetracyclo[7.3.1.0^{2,7}.0^{7,11}]tridecane-4,10-diol

>  <annotation_level>  (406) 
5

>  <total_atom_count>  (406) 
43

>  <heavy_atom_count>  (406) 
21

>  <molecular_weight>  (406) 
302.32

>  <exact_molecular_weight>  (406) 
302.13655

>  <molecular_formula>  (406) 
C14H22O7

>  <alogp>  (406) 
-0.47

>  <topological_polar_surface_area>  (406) 
86.61

>  <rotatable_bond_count>  (406) 
2

>  <hydrogen_bond_acceptors>  (406) 
7

>  <hydrogen_bond_donors>  (406) 
2

>  <hydrogen_bond_acceptors_lipinski>  (406) 
7

>  <hydrogen_bond_donors_lipinski>  (406) 
2

>  <lipinski_rule_of_five_violations>  (406) 
0

>  <aromatic_rings_count>  (406) 
0

>  <qed_drug_likeliness>  (406) 
0.71

>  <formal_charge>  (406) 
0

>  <fractioncsp3>  (406) 
1.00

>  <number_of_minimal_rings>  (406) 
5

>  <van_der_walls_volume>  (406) 
259.04

>  <contains_sugar>  (406) 
False

>  <contains_ring_sugars>  (406) 
False

>  <contains_linear_sugars>  (406) 
False

>  <murcko_framework>  (406) 
O1CCC2C3OC4CC(OC42C1)C3

>  <np_likeness>  (406) 
2.29

>  <chemical_class>  (406) 
Furofurans

>  <chemical_sub_class>  (406) 
Isosorbides

>  <chemical_super_class>  (406) 
Organoheterocyclic compounds

>  <direct_parent_classification>  (406) 
Isosorbides

>  <np_classifier_pathway>  (406) 
Terpenoids

>  <np_classifier_superclass>  (406) 
Sesquiterpenoids

>  <np_classifier_class>  (406) 
Alliacane sesquiterpenoids

>  <np_classifier_is_glycoside>  (406) 
True

>  <organisms>  (406) 
Pentalinon andrieuxii

>  <collections>  (406) 
BIOFACQUIM|Latin America dataset|Super Natural II

>  <dois>  (406) 
10.1021/np800554n

>  <synonyms>  (406) 
Urechitol A

>  <cas>  (406) 
nan

$$$$

     RDKit          2D

 21 23  0  0  0  0  0  0  0  0999 V2000
   -6.3164    2.1277    0.0000 C   0  0  0  0  0  0  0  0  0  0  0  0
   -5.7788    0.7273    0.0000 O   0  0  0  0  0  0  0  0  0  0  0  0
   -4.2973    0.4927    0.0000 C   0  0  0  0  0  0  0  0  0  0  0  0
   -3.3533    1.6584    0.0000 C   0  0  0  0  0  0  0  0  0  0  0  0
   -1.8718    1.4238    0.0000 C   0  0  0  0  0  0  0  0  0  0  0  0
   -1.3342    0.0234    0.0000 C   0  0  0  0  0  0  0  0  0  0  0  0
    0.1473   -0.2112    0.0000 C   0  0  0  0  0  0  0  0  0  0  0  0
    0.6849   -1.6116    0.0000 C   0  0  0  0  0  0  0  0  0  0  0  0
    2.1664   -1.8462    0.0000 O   0  0  0  0  0  0  0  0  0  0  0  0
    3.1104   -0.6805    0.0000 C   0  0  0  0  0  0  0  0  0  0  0  0
    4.5920   -0.9151    0.0000 C   0  0  0  0  0  0  0  0  0  0  0  0
    5.5359    0.2506    0.0000 C   0  0  0  0  0  0  0  0  0  0  0  0
    7.0175    0.0160    0.0000 O   0  0  0  0  0  0  0  0  0  0  0  0
    4.9983    1.6510    0.0000 C   0  0  0  0  0  0  0  0  0  0  0  0
    3.5168    1.8856    0.0000 C   0  0  0  0  0  0  0  0  0  0  0  0
    2.5728    0.7199    0.0000 C   0  0  0  0  0  0  0  0  0  0  0  0
    1.0913    0.9545    0.0000 C   0  0  0  0  0  0  0  0  0  0  0  0
   -2.2782   -1.1423    0.0000 C   0  0  0  0  0  0  0  0  0  0  0  0
   -1.7406   -2.5427    0.0000 O   0  0  0  0  0  0  0  0  0  0  0  0
   -3.7597   -0.9077    0.0000 C   0  0  0  0  0  0  0  0  0  0  0  0
   -4.7037   -2.0734    0.0000 O   0  0  0  0  0  0  0  0  0  0  0  0
  1  2  1  0
  2  3  1  0
  3  4  2  0
  4  5  1  0
  5  6  2  0
  7  6  1  1
  7  8  1  0
  8  9  1  0
  9 10  1  0
 10 11  2  0
 11 12  1  0
 12 13  1  0
 12 14  2  0
 14 15  1  0
 15 16  2  0
 16 17  1  0
  6 18  1  0
 18 19  1  0
 18 20  2  0
 20 21  1  0
 20  3  1  0
 17  7  1  0
 16 10  1  0
M  END
>  <identifier>  (407) 
CNP0232261.1

>  <canonical_smiles>  (407) 
COC1=CC=C([C@@H]2COC3=CC(O)=CC=C3C2)C(O)=C1O

>  <standard_inchi>  (407) 
InChI=1S/C16H16O5/c1-20-13-5-4-12(15(18)16(13)19)10-6-9-2-3-11(17)7-14(9)21-8-10/h2-5,7,10,17-19H,6,8H2,1H3/t10-/m0/s1

>  <standard_inchi_key>  (407) 
OPRVJOGZFPVPRP-JTQLQIEISA-N

>  <name>  (407) 
3-[(3R)-7-hydroxy-3,4-dihydro-2H-chromen-3-yl]-6-methoxybenzene-1,2-diol

>  <iupac_name>  (407) 
3-[(3~{R})-7-hydroxychroman-3-yl]-6-methoxy-benzene-1,2-diol

>  <annotation_level>  (407) 
5

>  <total_atom_count>  (407) 
37

>  <heavy_atom_count>  (407) 
21

>  <molecular_weight>  (407) 
288.3

>  <exact_molecular_weight>  (407) 
288.09977

>  <molecular_formula>  (407) 
C16H16O5

>  <alogp>  (407) 
2.53

>  <topological_polar_surface_area>  (407) 
79.15

>  <rotatable_bond_count>  (407) 
2

>  <hydrogen_bond_acceptors>  (407) 
5

>  <hydrogen_bond_donors>  (407) 
3

>  <hydrogen_bond_acceptors_lipinski>  (407) 
5

>  <hydrogen_bond_donors_lipinski>  (407) 
3

>  <lipinski_rule_of_five_violations>  (407) 
0

>  <aromatic_rings_count>  (407) 
2

>  <qed_drug_likeliness>  (407) 
0.74

>  <formal_charge>  (407) 
0

>  <fractioncsp3>  (407) 
0.25

>  <number_of_minimal_rings>  (407) 
3

>  <van_der_walls_volume>  (407) 
254.32

>  <contains_sugar>  (407) 
False

>  <contains_ring_sugars>  (407) 
False

>  <contains_linear_sugars>  (407) 
False

>  <murcko_framework>  (407) 
O1c2ccccc2CC(c3ccccc3)C1

>  <np_likeness>  (407) 
1.51

>  <chemical_class>  (407) 
Isoflavonoids

>  <chemical_sub_class>  (407) 
O-methylated isoflavonoids

>  <chemical_super_class>  (407) 
Phenylpropanoids and polyketides

>  <direct_parent_classification>  (407) 
3'-hydroxy,4'-methoxyisoflavonoids

>  <np_classifier_pathway>  (407) 
Shikimates and Phenylpropanoids

>  <np_classifier_superclass>  (407) 
Isoflavonoids

>  <np_classifier_class>  (407) 
Isoflavanones

>  <np_classifier_is_glycoside>  (407) 
False

>  <organisms>  (407) 
Aaptos ciliata|Abies excelsa|Abies pinsapo var. marocana|Achlya heterosexualis|Alternaria macrospora|Ampelocera edentula|Angelica acutiloba|Arnica mollis|Botrytis cinerea|Brassica carinata|Bryonia alba|Carpha glomerata|Chrysosporum ovalisporum|Croton gratissimus|Cyanostegia angustifolia|Dactylorhiza viridis|Diplopterygium glaucum|Eucalyptus resinifera|Euphrasia genargentea|Eurycoma harmandiana|Glycyrrhiza glabra|Halobacillus litoralis|Ixeris debilis|Lobophytum durum|Lysimachia fordiana|Marasmiellus troyanus|Maytenus chuchuhuasha|Orthosiphon spicatus|Oxytropis falcata|Pterolobium hexapetalum|Ranunculus asiaticus|Red Mexican Propolis|Remirea maritima|Schizophyllum lobatum|Sinapis alba|Solanum lanceolatum|Streptomyces matensis|Tephrosia elata|Trididemnum cyanophorum|Viburnum erubescens|Wikstroemia viridiflora|Xanthorhiza simplicissima

>  <collections>  (407) 
BIOFACQUIM|CMAUP (cCollective molecular activities of useful plants)|NPASS|Super Natural II

>  <dois>  (407) 
10.1016/j.bmc.2009.11.027|10.1021/jf100070w

>  <synonyms>  (407) 
CHEMBL592625|SCHEMBL15514455|(3R)-2'|3'|7-trihydroxy-4'-methoxyisoflavan|Arizonicanol A

>  <cas>  (407) 
nan

$$$$

     RDKit          2D

 22 24  0  0  0  0  0  0  0  0999 V2000
   -6.1097    2.5129    0.0000 C   0  0  0  0  0  0  0  0  0  0  0  0
   -5.6217    1.0945    0.0000 O   0  0  0  0  0  0  0  0  0  0  0  0
   -4.1494    0.8078    0.0000 C   0  0  0  0  0  0  0  0  0  0  0  0
   -3.1649    1.9396    0.0000 C   0  0  0  0  0  0  0  0  0  0  0  0
   -1.6926    1.6530    0.0000 C   0  0  0  0  0  0  0  0  0  0  0  0
   -1.2047    0.2345    0.0000 C   0  0  0  0  0  0  0  0  0  0  0  0
    0.2677   -0.0521    0.0000 C   0  0  0  0  0  0  0  0  0  0  0  0
    0.7556   -1.4705    0.0000 C   0  0  0  0  0  0  0  0  0  0  0  0
    2.2280   -1.7572    0.0000 O   0  0  0  0  0  0  0  0  0  0  0  0
    3.2124   -0.6254    0.0000 C   0  0  0  0  0  0  0  0  0  0  0  0
    4.6848   -0.9121    0.0000 C   0  0  0  0  0  0  0  0  0  0  0  0
    5.6692    0.2197    0.0000 C   0  0  0  0  0  0  0  0  0  0  0  0
    7.1415   -0.0669    0.0000 O   0  0  0  0  0  0  0  0  0  0  0  0
    5.1813    1.6381    0.0000 C   0  0  0  0  0  0  0  0  0  0  0  0
    3.7089    1.9248    0.0000 C   0  0  0  0  0  0  0  0  0  0  0  0
    2.7245    0.7930    0.0000 C   0  0  0  0  0  0  0  0  0  0  0  0
    1.2521    1.0797    0.0000 C   0  0  0  0  0  0  0  0  0  0  0  0
   -2.1891   -0.8972    0.0000 C   0  0  0  0  0  0  0  0  0  0  0  0
   -1.7011   -2.3157    0.0000 O   0  0  0  0  0  0  0  0  0  0  0  0
   -2.6856   -3.4474    0.0000 C   0  0  0  0  0  0  0  0  0  0  0  0
   -3.6614   -0.6106    0.0000 C   0  0  0  0  0  0  0  0  0  0  0  0
   -4.6459   -1.7424    0.0000 O   0  0  0  0  0  0  0  0  0  0  0  0
  1  2  1  0
  2  3  1  0
  3  4  2  0
  4  5  1  0
  5  6  2  0
  7  6  1  1
  7  8  1  0
  8  9  1  0
  9 10  1  0
 10 11  2  0
 11 12  1  0
 12 13  1  0
 12 14  2  0
 14 15  1  0
 15 16  2  0
 16 17  1  0
  6 18  1  0
 18 19  1  0
 19 20  1  0
 18 21  2  0
 21 22  1  0
 21  3  1  0
 17  7  1  0
 16 10  1  0
M  END
>  <identifier>  (408) 
CNP0295681.1

>  <canonical_smiles>  (408) 
COC1=CC=C([C@@H]2COC3=CC(O)=CC=C3C2)C(OC)=C1O

>  <standard_inchi>  (408) 
InChI=1S/C17H18O5/c1-20-14-6-5-13(17(21-2)16(14)19)11-7-10-3-4-12(18)8-15(10)22-9-11/h3-6,8,11,18-19H,7,9H2,1-2H3/t11-/m0/s1

>  <standard_inchi_key>  (408) 
NUNFZNIXYWTZMW-NSHDSACASA-N

>  <name>  (408) 
57128-11-7

>  <iupac_name>  (408) 
(3~{R})-3-(3-hydroxy-2,4-dimethoxy-phenyl)chroman-7-ol

>  <annotation_level>  (408) 
5

>  <total_atom_count>  (408) 
40

>  <heavy_atom_count>  (408) 
22

>  <molecular_weight>  (408) 
302.33

>  <exact_molecular_weight>  (408) 
302.11542

>  <molecular_formula>  (408) 
C17H18O5

>  <alogp>  (408) 
2.83

>  <topological_polar_surface_area>  (408) 
68.15

>  <rotatable_bond_count>  (408) 
3

>  <hydrogen_bond_acceptors>  (408) 
5

>  <hydrogen_bond_donors>  (408) 
2

>  <hydrogen_bond_acceptors_lipinski>  (408) 
5

>  <hydrogen_bond_donors_lipinski>  (408) 
2

>  <lipinski_rule_of_five_violations>  (408) 
0

>  <aromatic_rings_count>  (408) 
2

>  <qed_drug_likeliness>  (408) 
0.91

>  <formal_charge>  (408) 
0

>  <fractioncsp3>  (408) 
0.29

>  <number_of_minimal_rings>  (408) 
3

>  <van_der_walls_volume>  (408) 
269.58

>  <contains_sugar>  (408) 
False

>  <contains_ring_sugars>  (408) 
False

>  <contains_linear_sugars>  (408) 
False

>  <murcko_framework>  (408) 
O1c2ccccc2CC(c3ccccc3)C1

>  <np_likeness>  (408) 
1.53

>  <chemical_class>  (408) 
Isoflavonoids

>  <chemical_sub_class>  (408) 
O-methylated isoflavonoids

>  <chemical_super_class>  (408) 
Phenylpropanoids and polyketides

>  <direct_parent_classification>  (408) 
3'-hydroxy,4'-methoxyisoflavonoids

>  <np_classifier_pathway>  (408) 
Shikimates and Phenylpropanoids

>  <np_classifier_superclass>  (408) 
Isoflavonoids

>  <np_classifier_class>  (408) 
Isoflavanones

>  <np_classifier_is_glycoside>  (408) 
False

>  <organisms>  (408) 
Aaptos ciliata|Abies excelsa|Abies pinsapo var. marocana|Achlya heterosexualis|Alternaria macrospora|Ampelocera edentula|Angelica acutiloba|Arnica mollis|Aspilia parvifolia|Astragalus adsurgens|Astragalus cicer|Astragalus lusitanicus|Astragalus spp.|Barringtonia acutangula|Botrytis cinerea|Brassica carinata|Bryonia alba|Carpha glomerata|Chrysosporum ovalisporum|Corydalis densiflora|Craibiodendron yunnanense|Croton gratissimus|Cyanostegia angustifolia|Cystoseira mediterranea|Dactylorhiza viridis|Dalbergia cearensis|Dalbergia congestiflora|Dalbergia parviflora|Dalbergia spp.|Dalbergia veriabilis|Desmodium canadense|Diplopterygium glaucum|Embelia ribes|Eucalyptus resinifera|Euphrasia genargentea|Eurycoma harmandiana|Halobacillus litoralis|Ixeris debilis|Khaya grandifoliola|Lobophytum durum|Lysimachia fordiana|Mabea fistulifera|Machaerium acutifolium|Machaerium mucronulatum|Machaerium opacum|Machaerium spp.|Machaerium vestitum|Marasmiellus troyanus|Maytenus chuchuhuasha|Napoleonaea vogelii|Orthosiphon spicatus|Oxytropis falcata|Phaseolus vulgaris|Pterocarpus soyauxii|Pterolobium hexapetalum|Ranunculus asiaticus|Red Mexican Propolis|Remirea maritima|Schizophyllum lobatum|Schleichera trijuga|Schultesia guianensis|Sinapis alba|Solanum lanceolatum|Sphaerophysa salsula|Streptomyces matensis|Tephrosia elata|Triclisia subcordata|Trididemnum cyanophorum|Viburnum erubescens|Wikstroemia viridiflora|Xanthorhiza simplicissima

>  <collections>  (408) 
BIOFACQUIM|CMAUP (cCollective molecular activities of useful plants)|KNApSaCK|NPASS|Super Natural II|TCMDB-Taiwan (Traditional Chinese Medicine database)

>  <dois>  (408) 
10.1021/jf100070w

>  <synonyms>  (408) 
2H-1-Benzopyran-7-ol| 3|4-dihydro-3-(3-hydroxy-2|4-dimethoxyphenyl)-| (3R)-|(R)-Mucronulatol|CHEMBL1087024|DTXSID201153125|FS-8554|(3R)-3|4-Dihydro-3-(3-hydroxy-2|4-dimethoxyphenyl)-2H-1-benzopyran-7-ol|(3R)-3-(3-hydroxy-2|4-dimethoxyphenyl)-3|4-dihydro-2H-1-benzopyran-7-ol|Mucronulatol

>  <cas>  (408) 
nan

$$$$

     RDKit          2D

 22 25  0  0  0  0  0  0  0  0999 V2000
   -7.5272   -0.2334    0.0000 C   0  0  0  0  0  0  0  0  0  0  0  0
   -6.3253   -1.1308    0.0000 O   0  0  0  0  0  0  0  0  0  0  0  0
   -4.9472   -0.5386    0.0000 C   0  0  0  0  0  0  0  0  0  0  0  0
   -4.7710    0.9510    0.0000 C   0  0  0  0  0  0  0  0  0  0  0  0
   -3.3928    1.5433    0.0000 C   0  0  0  0  0  0  0  0  0  0  0  0
   -2.1909    0.6459    0.0000 C   0  0  0  0  0  0  0  0  0  0  0  0
   -2.3671   -0.8438    0.0000 C   0  0  0  0  0  0  0  0  0  0  0  0
   -3.7452   -1.4360    0.0000 C   0  0  0  0  0  0  0  0  0  0  0  0
   -1.0048   -1.4716    0.0000 O   0  0  0  0  0  0  0  0  0  0  0  0
    0.0133   -0.3701    0.0000 C   0  0  0  0  0  0  0  0  0  0  0  0
    1.5132   -0.3896    0.0000 C   0  0  0  0  0  0  0  0  0  0  0  0
    2.2462   -1.6983    0.0000 C   0  0  0  0  0  0  0  0  0  0  0  0
    3.7461   -1.7178    0.0000 C   0  0  0  0  0  0  0  0  0  0  0  0
    4.5129   -0.4287    0.0000 C   0  0  0  0  0  0  0  0  0  0  0  0
    6.0128   -0.4482    0.0000 O   0  0  0  0  0  0  0  0  0  0  0  0
    6.7458   -1.7569    0.0000 C   0  0  0  0  0  0  0  0  0  0  0  0
    3.7799    0.8800    0.0000 C   0  0  0  0  0  0  0  0  0  0  0  0
    4.5467    2.1692    0.0000 O   0  0  0  0  0  0  0  0  0  0  0  0
    2.2800    0.8996    0.0000 C   0  0  0  0  0  0  0  0  0  0  0  0
    1.5470    2.2083    0.0000 O   0  0  0  0  0  0  0  0  0  0  0  0
    0.0471    2.2278    0.0000 C   0  0  0  0  0  0  0  0  0  0  0  0
   -0.7197    0.9386    0.0000 C   0  0  0  0  0  0  0  0  0  0  0  0
  1  2  1  0
  2  3  1  0
  3  4  2  0
  4  5  1  0
  5  6  2  0
  6  7  1  0
  7  8  2  0
  7  9  1  0
 10  9  1  6
 10 11  1  0
 11 12  2  0
 12 13  1  0
 13 14  2  0
 14 15  1  0
 15 16  1  0
 14 17  1  0
 17 18  1  0
 17 19  2  0
 19 20  1  0
 20 21  1  0
 22 21  1  6
  8  3  1  0
 22 10  1  0
 22  6  1  0
 19 11  1  0
M  END
>  <identifier>  (409) 
CNP0363286.1

>  <canonical_smiles>  (409) 
COC1=CC=C2C(=C1)O[C@H]1C3=CC=C(OC)C(O)=C3OC[C@@H]21

>  <standard_inchi>  (409) 
InChI=1S/C17H16O5/c1-19-9-3-4-10-12-8-21-17-11(16(12)22-14(10)7-9)5-6-13(20-2)15(17)18/h3-7,12,16,18H,8H2,1-2H3/t12-,16-/m0/s1

>  <standard_inchi_key>  (409) 
YHSXPHNOIMTWTH-LRDDRELGSA-N

>  <name>  (409) 
4-Hydroxyhomopterocarpin

>  <iupac_name>  (409) 
(6~{a}~{R},11~{a}~{R})-3,9-dimethoxy-6~{a},11~{a}-dihydro-6~{H}-benzofuro[3,2-c]chromen-4-ol

>  <annotation_level>  (409) 
5

>  <total_atom_count>  (409) 
38

>  <heavy_atom_count>  (409) 
22

>  <molecular_weight>  (409) 
300.31

>  <exact_molecular_weight>  (409) 
300.09977

>  <molecular_formula>  (409) 
C17H16O5

>  <alogp>  (409) 
3.02

>  <topological_polar_surface_area>  (409) 
57.15

>  <rotatable_bond_count>  (409) 
2

>  <hydrogen_bond_acceptors>  (409) 
5

>  <hydrogen_bond_donors>  (409) 
1

>  <hydrogen_bond_acceptors_lipinski>  (409) 
5

>  <hydrogen_bond_donors_lipinski>  (409) 
1

>  <lipinski_rule_of_five_violations>  (409) 
0

>  <aromatic_rings_count>  (409) 
2

>  <qed_drug_likeliness>  (409) 
0.92

>  <formal_charge>  (409) 
0

>  <fractioncsp3>  (409) 
0.29

>  <number_of_minimal_rings>  (409) 
4

>  <van_der_walls_volume>  (409) 
260.64

>  <contains_sugar>  (409) 
False

>  <contains_ring_sugars>  (409) 
False

>  <contains_linear_sugars>  (409) 
False

>  <murcko_framework>  (409) 
O1c2ccccc2C3Oc4ccccc4C3C1

>  <np_likeness>  (409) 
1.76

>  <chemical_class>  (409) 
Isoflavonoids

>  <chemical_sub_class>  (409) 
Furanoisoflavonoids

>  <chemical_super_class>  (409) 
Phenylpropanoids and polyketides

>  <direct_parent_classification>  (409) 
Pterocarpans

>  <np_classifier_pathway>  (409) 
Shikimates and Phenylpropanoids

>  <np_classifier_superclass>  (409) 
Isoflavonoids

>  <np_classifier_class>  (409) 
Pterocarpan

>  <np_classifier_is_glycoside>  (409) 
False

>  <organisms>  (409) 
Cinnamomum aromaticum|Dalbergia odorifera|Melilotus alba|Pterocarpus santalinus|Red Mexican Propolis|Trifolium hybridum|Trifolium pallescens

>  <collections>  (409) 
BIOFACQUIM|CMAUP (cCollective molecular activities of useful plants)|ChEBI NPs|KNApSaCK|Latin America dataset|NPASS|NPEdia|Super Natural II

>  <dois>  (409) 
10.1021/jf100070w

>  <synonyms>  (409) 
Melilotocarpan A|61135-95-3|4-Homopterocarpinol|C8GUD7FQ4N|Melilotocarpan A| (-)-|UNII-C8GUD7FQ4N|(6aR|11aR)-3|9-dimethoxy-6a|11a-dihydro-6H-1benzofuro3|2-cchromen-4-ol|(6aR|11aR)-6a|11a-Dihydro-3|9-dimethoxy-6H-benzofuro(3|2-C)(1)benzopyran-4-ol|6H-Benzofuro(3|2-C)(1)benzopyran-4-ol| 6a|11a-dihydro-3|9-dimethoxy-| (6aR|11aR)-|C10461|CHEBI:1867|DTXSID70331954|LMPK12070072|Q27105514|4-Hydroxyhomopterocarpin

>  <cas>  (409) 
61135-95-3

$$$$

     RDKit          2D

 20 22  0  0  0  0  0  0  0  0999 V2000
   -6.6268    1.7619    0.0000 C   0  0  0  0  0  0  0  0  0  0  0  0
   -6.0340    0.3840    0.0000 O   0  0  0  0  0  0  0  0  0  0  0  0
   -4.5443    0.2085    0.0000 C   0  0  0  0  0  0  0  0  0  0  0  0
   -3.6475    1.4108    0.0000 C   0  0  0  0  0  0  0  0  0  0  0  0
   -2.1578    1.2353    0.0000 C   0  0  0  0  0  0  0  0  0  0  0  0
   -1.5649   -0.1426    0.0000 C   0  0  0  0  0  0  0  0  0  0  0  0
   -0.0752   -0.3181    0.0000 C   0  0  0  0  0  0  0  0  0  0  0  0
    0.5176   -1.6960    0.0000 C   0  0  0  0  0  0  0  0  0  0  0  0
    2.0073   -1.8716    0.0000 O   0  0  0  0  0  0  0  0  0  0  0  0
    2.9041   -0.6692    0.0000 C   0  0  0  0  0  0  0  0  0  0  0  0
    4.3938   -0.8448    0.0000 C   0  0  0  0  0  0  0  0  0  0  0  0
    5.2907    0.3576    0.0000 C   0  0  0  0  0  0  0  0  0  0  0  0
    6.7804    0.1820    0.0000 O   0  0  0  0  0  0  0  0  0  0  0  0
    4.6979    1.7355    0.0000 C   0  0  0  0  0  0  0  0  0  0  0  0
    3.2082    1.9110    0.0000 C   0  0  0  0  0  0  0  0  0  0  0  0
    2.3113    0.7087    0.0000 C   0  0  0  0  0  0  0  0  0  0  0  0
    0.8216    0.8842    0.0000 C   0  0  0  0  0  0  0  0  0  0  0  0
   -2.4618   -1.3449    0.0000 C   0  0  0  0  0  0  0  0  0  0  0  0
   -1.8690   -2.7228    0.0000 O   0  0  0  0  0  0  0  0  0  0  0  0
   -3.9515   -1.1694    0.0000 C   0  0  0  0  0  0  0  0  0  0  0  0
  1  2  1  0
  2  3  1  0
  3  4  2  0
  4  5  1  0
  5  6  2  0
  7  6  1  6
  7  8  1  0
  8  9  1  0
  9 10  1  0
 10 11  2  0
 11 12  1  0
 12 13  1  0
 12 14  2  0
 14 15  1  0
 15 16  2  0
 16 17  1  0
  6 18  1  0
 18 19  1  0
 18 20  2  0
 20  3  1  0
 17  7  1  0
 16 10  1  0
M  END
>  <identifier>  (410) 
CNP0112992.1

>  <canonical_smiles>  (410) 
COC1=CC=C([C@H]2COC3=CC(O)=CC=C3C2)C(O)=C1

>  <standard_inchi>  (410) 
InChI=1S/C16H16O4/c1-19-13-4-5-14(15(18)8-13)11-6-10-2-3-12(17)7-16(10)20-9-11/h2-5,7-8,11,17-18H,6,9H2,1H3/t11-/m1/s1

>  <standard_inchi_key>  (410) 
XRVFNNUXNVWYTI-LLVKDONJSA-N

>  <name>  (410) 
(+)-Vestitol

>  <iupac_name>  (410) 
(3~{S})-3-(2-hydroxy-4-methoxy-phenyl)chroman-7-ol

>  <annotation_level>  (410) 
5

>  <total_atom_count>  (410) 
36

>  <heavy_atom_count>  (410) 
20

>  <molecular_weight>  (410) 
272.3

>  <exact_molecular_weight>  (410) 
272.10486

>  <molecular_formula>  (410) 
C16H16O4

>  <alogp>  (410) 
2.83

>  <topological_polar_surface_area>  (410) 
58.92

>  <rotatable_bond_count>  (410) 
2

>  <hydrogen_bond_acceptors>  (410) 
4

>  <hydrogen_bond_donors>  (410) 
2

>  <hydrogen_bond_acceptors_lipinski>  (410) 
4

>  <hydrogen_bond_donors_lipinski>  (410) 
2

>  <lipinski_rule_of_five_violations>  (410) 
0

>  <aromatic_rings_count>  (410) 
2

>  <qed_drug_likeliness>  (410) 
0.88

>  <formal_charge>  (410) 
0

>  <fractioncsp3>  (410) 
0.25

>  <number_of_minimal_rings>  (410) 
3

>  <van_der_walls_volume>  (410) 
243.86

>  <contains_sugar>  (410) 
False

>  <contains_ring_sugars>  (410) 
False

>  <contains_linear_sugars>  (410) 
False

>  <murcko_framework>  (410) 
O1c2ccccc2CC(c3ccccc3)C1

>  <np_likeness>  (410) 
1.29

>  <chemical_class>  (410) 
Isoflavonoids

>  <chemical_sub_class>  (410) 
O-methylated isoflavonoids

>  <chemical_super_class>  (410) 
Phenylpropanoids and polyketides

>  <direct_parent_classification>  (410) 
4'-O-methylated isoflavonoids

>  <np_classifier_pathway>  (410) 
Shikimates and Phenylpropanoids

>  <np_classifier_superclass>  (410) 
Isoflavonoids

>  <np_classifier_class>  (410) 
Isoflavanones

>  <np_classifier_is_glycoside>  (410) 
False

>  <organisms>  (410) 
Apis mellifera ligustica|Avena sativa|Brazilian Red Propolis|Dalbergia assamica|Dalbergia variabilis|Dasycladus vermicularis|Echinops transiliensis|Fraxinus angustifolia subsp. oxycarpa|Glycyrrhiza spp.|Haemanthus amarylloides|Hedysarum theinum|Lantana montevidensis|Machaerium vestitum|Muscari botryoides|Mycena sanguinolenta|Olearia pimeleoides|Polyporus pini|Red Mexican Propolis|Salvia castanea|Senecio suaveolens|Stellaria holostea|Streptomyces lydicus|Streptomyces nobilis|Teclea gerrardii|Thalictrum flavum|Tropicoporus linteus|Zollernia paraensis

>  <collections>  (410) 
BIOFACQUIM|CMAUP (cCollective molecular activities of useful plants)|ChEBI NPs|KNApSaCK|Latin America dataset|NPASS|NPEdia|Super Natural II|TCMDB-Taiwan (Traditional Chinese Medicine database)|ZINC NP

>  <dois>  (410) 
10.1016/j.bmc.2007.10.004|10.1016/j.bmc.2008.04.016|10.1021/acs.jnatprod.5b00938|10.1021/jf100070w

>  <synonyms>  (410) 
(3S)-Vestitol|20879-05-4|Vestitol| (+)-|(3S)-3-(2-hydroxy-4-methoxyphenyl)-3|4-dihydro-2H-chromen-7-ol|YRP165YV4N|CHEBI:9971|(3S)-3|4-Dihydro-3-(2-hydroxy-4-methoxyphenyl)-2H-1-benzopyran-7-ol|2H-1-Benzopyran-7-ol| 3|4-dihydro-3-(2-hydroxy-4-methoxyphenyl)-| (3S)-|(3S)-3-(2-hydroxy-4-methoxyphenyl)chroman-7-ol|UNII-YRP165YV4N|CHEMBL252913|SCHEMBL13829404|DTXSID10943131|LMPK12080026|Q27108542|2'|7-ISOFLAVANDIOL| 4'-METHOXY-| (S)-(+)-|3-(2-hydroxy-4-methoxyphenyl)-3|4-dihydro-2H-1-benzopyran-7-ol|Vestitol|(+)-Vestitol

>  <cas>  (410) 
20879-05-4

$$$$

     RDKit          2D

 23 26  0  0  0  0  0  0  0  0999 V2000
   -7.3560    0.1481    0.0000 C   0  0  0  0  0  0  0  0  0  0  0  0
   -6.1858   -0.7903    0.0000 O   0  0  0  0  0  0  0  0  0  0  0  0
   -4.7880   -0.2461    0.0000 C   0  0  0  0  0  0  0  0  0  0  0  0
   -4.5605    1.2366    0.0000 C   0  0  0  0  0  0  0  0  0  0  0  0
   -3.1627    1.7808    0.0000 C   0  0  0  0  0  0  0  0  0  0  0  0
   -1.9925    0.8424    0.0000 C   0  0  0  0  0  0  0  0  0  0  0  0
   -2.2200   -0.6402    0.0000 C   0  0  0  0  0  0  0  0  0  0  0  0
   -3.6178   -1.1845    0.0000 C   0  0  0  0  0  0  0  0  0  0  0  0
   -3.8454   -2.6671    0.0000 O   0  0  0  0  0  0  0  0  0  0  0  0
   -0.8803   -1.3148    0.0000 O   0  0  0  0  0  0  0  0  0  0  0  0
    0.1753   -0.2491    0.0000 C   0  0  0  0  0  0  0  0  0  0  0  0
    1.6736   -0.3204    0.0000 C   0  0  0  0  0  0  0  0  0  0  0  0
    2.3610   -1.6537    0.0000 C   0  0  0  0  0  0  0  0  0  0  0  0
    3.8593   -1.7250    0.0000 C   0  0  0  0  0  0  0  0  0  0  0  0
    4.6702   -0.4631    0.0000 C   0  0  0  0  0  0  0  0  0  0  0  0
    6.1685   -0.5345    0.0000 O   0  0  0  0  0  0  0  0  0  0  0  0
    6.8559   -1.8677    0.0000 C   0  0  0  0  0  0  0  0  0  0  0  0
    3.9828    0.8701    0.0000 C   0  0  0  0  0  0  0  0  0  0  0  0
    4.7938    2.1320    0.0000 O   0  0  0  0  0  0  0  0  0  0  0  0
    2.4845    0.9415    0.0000 C   0  0  0  0  0  0  0  0  0  0  0  0
    1.7972    2.2747    0.0000 O   0  0  0  0  0  0  0  0  0  0  0  0
    0.2989    2.3460    0.0000 C   0  0  0  0  0  0  0  0  0  0  0  0
   -0.5121    1.0842    0.0000 C   0  0  0  0  0  0  0  0  0  0  0  0
  1  2  1  0
  2  3  1  0
  3  4  2  0
  4  5  1  0
  5  6  2  0
  6  7  1  0
  7  8  2  0
  8  9  1  0
  7 10  1  0
 11 10  1  6
 11 12  1  0
 12 13  2  0
 13 14  1  0
 14 15  2  0
 15 16  1  0
 16 17  1  0
 15 18  1  0
 18 19  1  0
 18 20  2  0
 20 21  1  0
 21 22  1  0
 23 22  1  6
  8  3  1  0
 23 11  1  0
 23  6  1  0
 20 12  1  0
M  END
>  <identifier>  (411) 
CNP0216955.1

>  <canonical_smiles>  (411) 
COC1=CC=C2C(=C1O)O[C@H]1C3=CC=C(OC)C(O)=C3OC[C@@H]21

>  <standard_inchi>  (411) 
InChI=1S/C17H16O6/c1-20-11-6-4-9-15-10(7-22-16(9)13(11)18)8-3-5-12(21-2)14(19)17(8)23-15/h3-6,10,15,18-19H,7H2,1-2H3/t10-,15-/m0/s1

>  <standard_inchi_key>  (411) 
TYCXZCXHNKDQCZ-BONVTDFDSA-N

>  <name>  (411) 
Meliotocarpan D

>  <iupac_name>  (411) 
(6~{a}~{R},11~{a}~{R})-3,9-dimethoxy-6~{a},11~{a}-dihydro-6~{H}-benzofuro[3,2-c]chromene-4,10-diol

>  <annotation_level>  (411) 
5

>  <total_atom_count>  (411) 
39

>  <heavy_atom_count>  (411) 
23

>  <molecular_weight>  (411) 
316.31

>  <exact_molecular_weight>  (411) 
316.09469

>  <molecular_formula>  (411) 
C17H16O6

>  <alogp>  (411) 
2.72

>  <topological_polar_surface_area>  (411) 
77.38

>  <rotatable_bond_count>  (411) 
2

>  <hydrogen_bond_acceptors>  (411) 
6

>  <hydrogen_bond_donors>  (411) 
2

>  <hydrogen_bond_acceptors_lipinski>  (411) 
6

>  <hydrogen_bond_donors_lipinski>  (411) 
2

>  <lipinski_rule_of_five_violations>  (411) 
0

>  <aromatic_rings_count>  (411) 
2

>  <qed_drug_likeliness>  (411) 
0.89

>  <formal_charge>  (411) 
0

>  <fractioncsp3>  (411) 
0.29

>  <number_of_minimal_rings>  (411) 
4

>  <van_der_walls_volume>  (411) 
269.46

>  <contains_sugar>  (411) 
False

>  <contains_ring_sugars>  (411) 
False

>  <contains_linear_sugars>  (411) 
False

>  <murcko_framework>  (411) 
O1c2ccccc2C3Oc4ccccc4C3C1

>  <np_likeness>  (411) 
1.83

>  <chemical_class>  (411) 
Isoflavonoids

>  <chemical_sub_class>  (411) 
Furanoisoflavonoids

>  <chemical_super_class>  (411) 
Phenylpropanoids and polyketides

>  <direct_parent_classification>  (411) 
Pterocarpans

>  <np_classifier_pathway>  (411) 
Shikimates and Phenylpropanoids

>  <np_classifier_superclass>  (411) 
Isoflavonoids

>  <np_classifier_class>  (411) 
Pterocarpan

>  <np_classifier_is_glycoside>  (411) 
False

>  <organisms>  (411) 
Red Mexican Propolis

>  <collections>  (411) 
BIOFACQUIM|Latin America dataset|Super Natural II|TCMDB-Taiwan (Traditional Chinese Medicine database)

>  <dois>  (411) 
10.1021/jf100070w

>  <synonyms>  (411) 
83013-81-4|6H-Benzofuro3|2-c1benzopyran-4|10-diol| 6a|11a-dihydro-3|9-dimethoxy-| (6aR|11aR)-|SCHEMBL20138482|DTXSID901131885|AKOS040734288|FS-8473|(6aR|11aR)-6a|11a-Dihydro-3|9-dimethoxy-6H-benzofuro3|2-c1benzopyran-4|10-diol|(1R|10R)-5|14-dimethoxy-8|17-dioxatetracyclo8.7.0.0(2)|?.0(1)(1)|(1)?heptadeca-2(7)|3|5|11(16)|12|14-hexaene-6|15-diol|Melilotocarpan D

>  <cas>  (411) 
83013-81-4

$$$$

     RDKit          2D

 18 20  0  0  0  0  0  0  0  0999 V2000
    1.3570    3.4185    0.0000 O   0  0  0  0  0  0  0  0  0  0  0  0
    0.9147    1.9852    0.0000 C   0  0  0  0  0  0  0  0  0  0  0  0
   -0.5477    1.6516    0.0000 C   0  0  0  0  0  0  0  0  0  0  0  0
   -0.9900    0.2183    0.0000 C   0  0  0  0  0  0  0  0  0  0  0  0
   -2.4524   -0.1153    0.0000 C   0  0  0  0  0  0  0  0  0  0  0  0
   -3.4726    0.9844    0.0000 C   0  0  0  0  0  0  0  0  0  0  0  0
   -4.9350    0.6507    0.0000 C   0  0  0  0  0  0  0  0  0  0  0  0
   -5.3773   -0.7826    0.0000 C   0  0  0  0  0  0  0  0  0  0  0  0
   -4.3572   -1.8823    0.0000 C   0  0  0  0  0  0  0  0  0  0  0  0
   -2.8947   -1.5486    0.0000 C   0  0  0  0  0  0  0  0  0  0  0  0
    0.0301   -0.8814    0.0000 O   0  0  0  0  0  0  0  0  0  0  0  0
    1.4926   -0.5478    0.0000 C   0  0  0  0  0  0  0  0  0  0  0  0
    2.5127   -1.6475    0.0000 C   0  0  0  0  0  0  0  0  0  0  0  0
    3.9751   -1.3138    0.0000 C   0  0  0  0  0  0  0  0  0  0  0  0
    4.9953   -2.4135    0.0000 O   0  0  0  0  0  0  0  0  0  0  0  0
    4.4174    0.1195    0.0000 C   0  0  0  0  0  0  0  0  0  0  0  0
    3.3973    1.2192    0.0000 C   0  0  0  0  0  0  0  0  0  0  0  0
    1.9348    0.8855    0.0000 C   0  0  0  0  0  0  0  0  0  0  0  0
  1  2  2  0
  2  3  1  0
  3  4  1  0
  4  5  1  6
  5  6  2  0
  6  7  1  0
  7  8  2  0
  8  9  1  0
  9 10  2  0
  4 11  1  0
 11 12  1  0
 12 13  2  0
 13 14  1  0
 14 15  1  0
 14 16  2  0
 16 17  1  0
 17 18  2  0
 18  2  1  0
 10  5  1  0
 18 12  1  0
M  END
>  <identifier>  (412) 
CNP0316345.1

>  <canonical_smiles>  (412) 
O=C1C[C@@H](C2=CC=CC=C2)OC2=CC(O)=CC=C12

>  <standard_inchi>  (412) 
InChI=1S/C15H12O3/c16-11-6-7-12-13(17)9-14(18-15(12)8-11)10-4-2-1-3-5-10/h1-8,14,16H,9H2/t14-/m0/s1

>  <standard_inchi_key>  (412) 
SWAJPHCXKPCPQZ-AWEZNQCLSA-N

>  <name>  (412) 
(2S)-7-hydroxyflavanone

>  <iupac_name>  (412) 
(2~{S})-7-hydroxy-2-phenyl-chroman-4-one

>  <annotation_level>  (412) 
5

>  <total_atom_count>  (412) 
30

>  <heavy_atom_count>  (412) 
18

>  <molecular_weight>  (412) 
240.26

>  <exact_molecular_weight>  (412) 
240.07864

>  <molecular_formula>  (412) 
C15H12O3

>  <alogp>  (412) 
3.10

>  <topological_polar_surface_area>  (412) 
46.53

>  <rotatable_bond_count>  (412) 
1

>  <hydrogen_bond_acceptors>  (412) 
3

>  <hydrogen_bond_donors>  (412) 
1

>  <hydrogen_bond_acceptors_lipinski>  (412) 
3

>  <hydrogen_bond_donors_lipinski>  (412) 
1

>  <lipinski_rule_of_five_violations>  (412) 
0

>  <aromatic_rings_count>  (412) 
2

>  <qed_drug_likeliness>  (412) 
0.83

>  <formal_charge>  (412) 
0

>  <fractioncsp3>  (412) 
0.13

>  <number_of_minimal_rings>  (412) 
3

>  <van_der_walls_volume>  (412) 
213.10

>  <contains_sugar>  (412) 
False

>  <contains_ring_sugars>  (412) 
False

>  <contains_linear_sugars>  (412) 
False

>  <murcko_framework>  (412) 
O1c2ccccc2CCC1c3ccccc3

>  <np_likeness>  (412) 
1.29

>  <chemical_class>  (412) 
Flavonoids

>  <chemical_sub_class>  (412) 
Flavans

>  <chemical_super_class>  (412) 
Phenylpropanoids and polyketides

>  <direct_parent_classification>  (412) 
Flavanones

>  <np_classifier_pathway>  (412) 
Shikimates and Phenylpropanoids

>  <np_classifier_superclass>  (412) 
Flavonoids

>  <np_classifier_class>  (412) 
Flavanones

>  <np_classifier_is_glycoside>  (412) 
False

>  <organisms>  (412) 
Aaptos ciliata|Abies excelsa|Abies pinsapo var. marocana|Achlya heterosexualis|Alternaria macrospora|Ampelocera edentula|Andira retusa|Angelica acutiloba|Aplidium solidum|Aralia hispida|Arnica mollis|Artemisia juncea|Atriplex parvifolia|Baeckea frutescens|Balanophora polyandra|Botrytis cinerea|Brassica carinata|Brazilian Red Propolis|Bryonia alba|Carpha glomerata|Ceratiola ericoides|Chenopodiastrum murale|Chenopodium quinoa|Chrysosporum ovalisporum|Citrus medica|Coprosma foetidissima|Crinum asiaticum|Crotalaria crispata|Croton gratissimus|Cryptocarya chinensis|Cyanostegia angustifolia|Cyttaria johowii|Dactylorhiza viridis|Dalbergia cochinchinensis|Davidsonia pruriens|Diplopterygium glaucum|Diplotropis purpurea|Dyssodia anthemidifolia|Eriocephalus kingesii|Eucalyptus resinifera|Eupatorium laevigatum|Euphrasia genargentea|Eurycoma harmandiana|Flourensia heterolepis|Fusarium striatum|Geranium collinum|Girgensohnia oppositiflora|Gonotheca helianthoides|Halobacillus litoralis|Haplopappus deserticola|Harpullia cupanioides|Hesperocyparis arizonica|Hypocrella bambusae|Isodon eriocalyx|Ixeris debilis|Lespedeza maximowiczi|Lilium rubrum|Lobelia syphilitica|Lobophytum durum|Lychnophora pinaster|Lysastrosoma anthosticta|Lysimachia fordiana|Marasmiellus troyanus|Marrubium parviflorum|Maytenus chuchuhuasha|Microglossa pyrifolia|Orthosiphon spicatus|Oxytropis falcata|Panicum crus-galli|Parthenium confertum|Phymatopteris hastata|Platymiscium praecox|Polygonatum polyanthemum|Psathyrotes ramosissima|Pterocarpus marsupium|Pterolobium hexapetalum|Pyropolyporus fomentarius|Ranunculus asiaticus|Red Mexican Propolis|Remirea maritima|Schizophyllum lobatum|Scleropyrum wallichianum|Sinapis alba|Solanum lanceolatum|Sphaerechinus granularis|Streptomyces graminofaciens|Streptomyces matensis|Tephrosia elata|Trididemnum cyanophorum|Trifolium diffusum|Vatairea heteroptera|Veretillum cynomorium|Veronica stricta|Viburnum erubescens|Viburnum lantana|Virgilia oroboides|Virola surinamensis|Wikstroemia viridiflora|Xanthorhiza simplicissima|Youngia japonica|Zanthoxylum ocumarense

>  <collections>  (412) 
BIOFACQUIM|CMAUP (cCollective molecular activities of useful plants)|DrugBankNP|KNApSaCK|Latin America dataset|NPASS|Super Natural II|TIPdb (database of Taiwan indigenous plants)|ZINC NP

>  <dois>  (412) 
10.1021/jf100070w

>  <synonyms>  (412) 
7-hydroxy-2-phenyl-chroman-4-one|5|4'-DIDEOXYFLAVANONE|2545-13-3|(2S)-7-hydroxy-2-phenyl-2|3-dihydro-4H-chromen-4-one|(-)-7-Hydroxyflavanone|(S)-7-Hydroxy-2-phenylchroman-4-one|CHEBI:41888|7-Hydroxyflavanone| (S)-|J641.665I|CHEMBL402744|Flavanone| 7-hydroxy-| (-)-|MF98742K2H|4H-1-Benzopyran-4-one| 2|3-dihydro-7-hydroxy-2-phenyl-| (S)-|2H-1-Benzopyran-7-yloxy|BIDD:ER0186|UNII-MF98742K2H|SCHEMBL1072683|DTXSID90350985|41680-08-4|BDBM50535254|DB04274|NS00068199|Q27095092

>  <cas>  (412) 
2545-13-3|41680-08-4

$$$$

     RDKit          2D

 32 35  0  0  0  0  0  0  0  0999 V2000
   -4.6894   -2.5868    0.0000 C   0  0  0  0  0  0  0  0  0  0  0  0
   -3.2058   -2.3657    0.0000 C   0  0  0  0  0  0  0  0  0  0  0  0
   -2.6556   -0.9702    0.0000 C   0  0  0  0  0  0  0  0  0  0  0  0
   -3.5889    0.2040    0.0000 C   0  0  0  0  0  0  0  0  0  0  0  0
   -4.5832   -0.9191    0.0000 C   0  0  0  0  0  0  0  0  0  0  0  0
   -4.8676    0.9882    0.0000 C   0  0  0  0  0  0  0  0  0  0  0  0
   -4.8277    2.4877    0.0000 C   0  0  0  0  0  0  0  0  0  0  0  0
   -6.1861    0.2730    0.0000 C   0  0  0  0  0  0  0  0  0  0  0  0
   -6.2259   -1.2265    0.0000 O   0  0  0  0  0  0  0  0  0  0  0  0
   -7.4647    1.0572    0.0000 O   0  0  0  0  0  0  0  0  0  0  0  0
   -3.0386    1.5994    0.0000 C   0  0  0  0  0  0  0  0  0  0  0  0
   -1.5550    1.8206    0.0000 C   0  0  0  0  0  0  0  0  0  0  0  0
   -0.6217    0.6463    0.0000 C   0  0  0  0  0  0  0  0  0  0  0  0
   -1.1720   -0.7491    0.0000 C   0  0  0  0  0  0  0  0  0  0  0  0
   -1.7222   -2.1445    0.0000 C   0  0  0  0  0  0  0  0  0  0  0  0
   -0.2386   -1.9233    0.0000 C   0  0  0  0  0  0  0  0  0  0  0  0
    1.2450   -1.7022    0.0000 C   0  0  0  0  0  0  0  0  0  0  0  0
    1.7953   -0.3068    0.0000 C   0  0  0  0  0  0  0  0  0  0  0  0
    2.7286   -1.4810    0.0000 C   0  0  0  0  0  0  0  0  0  0  0  0
    3.2789   -0.0856    0.0000 C   0  0  0  0  0  0  0  0  0  0  0  0
    4.2122   -1.2598    0.0000 C   0  0  0  0  0  0  0  0  0  0  0  0
    5.6958   -1.0387    0.0000 C   0  0  0  0  0  0  0  0  0  0  0  0
    7.1656   -1.3383    0.0000 C   0  0  0  0  0  0  0  0  0  0  0  0
    5.6560   -2.5382    0.0000 C   0  0  0  0  0  0  0  0  0  0  0  0
    6.2461    0.3567    0.0000 C   0  0  0  0  0  0  0  0  0  0  0  0
    5.3127    1.5310    0.0000 C   0  0  0  0  0  0  0  0  0  0  0  0
    3.8291    1.3098    0.0000 C   0  0  0  0  0  0  0  0  0  0  0  0
    4.3794    2.7053    0.0000 C   0  0  0  0  0  0  0  0  0  0  0  0
    2.8958    2.4841    0.0000 C   0  0  0  0  0  0  0  0  0  0  0  0
    1.4122    2.2629    0.0000 C   0  0  0  0  0  0  0  0  0  0  0  0
    0.8619    0.8675    0.0000 C   0  0  0  0  0  0  0  0  0  0  0  0
   -0.0714    2.0418    0.0000 C   0  0  0  0  0  0  0  0  0  0  0  0
  1  2  2  0
  3  2  1  6
  3  4  1  0
  4  5  1  6
  4  6  1  0
  6  7  1  6
  6  8  1  0
  8  9  2  0
  8 10  1  0
  4 11  1  0
 11 12  1  0
 13 12  1  6
 13 14  1  0
 14 15  1  6
 14 16  1  0
 16 17  1  0
 17 18  1  0
 18 19  1  1
 18 20  1  0
 20 21  1  1
 21 22  1  0
 22 23  1  0
 22 24  1  0
 22 25  1  0
 25 26  1  0
 26 27  1  0
 27 28  1  6
 27 29  1  0
 29 30  1  0
 30 31  1  0
 31 32  1  6
 14  3  1  0
 31 18  1  0
 31 13  1  0
 27 20  1  0
M  END
>  <identifier>  (413) 
CNP0234661.1

>  <canonical_smiles>  (413) 
C=C[C@@H]1[C@@](C)([C@@H](C)C(=O)O)CC[C@H]2[C@@]1(C)CC[C@@]1(C)[C@@H]3CC(C)(C)CC[C@]3(C)CC[C@]21C

>  <standard_inchi>  (413) 
InChI=1S/C30H50O2/c1-10-21-27(6,20(2)24(31)32)12-11-22-28(21,7)16-18-30(9)23-19-25(3,4)13-14-26(23,5)15-17-29(22,30)8/h10,20-23H,1,11-19H2,2-9H3,(H,31,32)/t20-,21+,22-,23+,26+,27+,28-,29+,30-/m0/s1

>  <standard_inchi_key>  (413) 
JIJBCKTUZZUZGI-DIEYUIMASA-N

>  <name>  (413) 
1,2-dehydro-2,3-secofriedelan-3-oic acid

>  <iupac_name>  (413) 
(2~{R})-2-[(1~{S},2~{S},4~{a}~{S},4~{b}~{R},6~{a}~{R},10~{a}~{R},10~{b}~{S},12~{a}~{R})-2,4~{b},6~{a},9,9,10~{b},12~{a}-heptamethyl-1-vinyl-1,3,4,4~{a},5,6,7,8,10,10~{a},11,12-dodecahydrochrysen-2-yl]propanoic acid

>  <annotation_level>  (413) 
5

>  <total_atom_count>  (413) 
82

>  <heavy_atom_count>  (413) 
32

>  <molecular_weight>  (413) 
442.73

>  <exact_molecular_weight>  (413) 
442.38108

>  <molecular_formula>  (413) 
C30H50O2

>  <alogp>  (413) 
8.36

>  <topological_polar_surface_area>  (413) 
37.30

>  <rotatable_bond_count>  (413) 
3

>  <hydrogen_bond_acceptors>  (413) 
1

>  <hydrogen_bond_donors>  (413) 
1

>  <hydrogen_bond_acceptors_lipinski>  (413) 
1

>  <hydrogen_bond_donors_lipinski>  (413) 
1

>  <lipinski_rule_of_five_violations>  (413) 
1

>  <aromatic_rings_count>  (413) 
0

>  <qed_drug_likeliness>  (413) 
0.45

>  <formal_charge>  (413) 
0

>  <fractioncsp3>  (413) 
0.90

>  <number_of_minimal_rings>  (413) 
4

>  <van_der_walls_volume>  (413) 
459.34

>  <contains_sugar>  (413) 
False

>  <contains_ring_sugars>  (413) 
False

>  <contains_linear_sugars>  (413) 
False

>  <murcko_framework>  (413) 
C1CCC2C(C1)CCC3C4CCCCC4CCC23

>  <np_likeness>  (413) 
2.50

>  <chemical_class>  (413) 
Steroids and steroid derivatives

>  <chemical_sub_class>  (413) 
Hydroxysteroids

>  <chemical_super_class>  (413) 
Lipids and lipid-like molecules

>  <direct_parent_classification>  (413) 
Hydroxysteroids

>  <np_classifier_pathway>  (413) 
Terpenoids

>  <np_classifier_superclass>  (413) 
Triterpenoids

>  <np_classifier_class>  (413) 
Friedelane triterpenoids

>  <np_classifier_is_glycoside>  (413) 
False

>  <organisms>  (413) 
Garcia parviflora

>  <collections>  (413) 
BIOFACQUIM|CMAUP (cCollective molecular activities of useful plants)|ChEBI NPs|Latin America dataset|NPASS|Super Natural II

>  <dois>  (413) 
10.1021/np100440p

>  <synonyms>  (413) 
1|2-dehydro-2|3-secofriedelan-3-oic acid|CHEMBL1641905|Q27138752|(2R)-2-(1S|2S|4aS|4bR|6aR|10aR|10bS|12aR)-1-ethenyl-2|4b|6a|9|9|10b|12a-heptamethyloctadecahydrochrysen-2-ylpropanoic acid

>  <cas>  (413) 
nan

$$$$

     RDKit          2D

 32 36  0  0  0  0  0  0  0  0999 V2000
   -6.0039    1.7996    0.0000 C   0  0  0  0  0  0  0  0  0  0  0  0
   -5.1566    0.5618    0.0000 C   0  0  0  0  0  0  0  0  0  0  0  0
   -5.8049   -0.7909    0.0000 C   0  0  0  0  0  0  0  0  0  0  0  0
   -7.3005   -0.9058    0.0000 O   0  0  0  0  0  0  0  0  0  0  0  0
   -4.9575   -2.0286    0.0000 C   0  0  0  0  0  0  0  0  0  0  0  0
   -3.4620   -1.9137    0.0000 C   0  0  0  0  0  0  0  0  0  0  0  0
   -2.6146   -3.1514    0.0000 O   0  0  0  0  0  0  0  0  0  0  0  0
   -2.8137   -0.5610    0.0000 C   0  0  0  0  0  0  0  0  0  0  0  0
   -3.6610    0.6768    0.0000 C   0  0  0  0  0  0  0  0  0  0  0  0
   -4.5084    1.9145    0.0000 C   0  0  0  0  0  0  0  0  0  0  0  0
   -3.0128    2.0294    0.0000 C   0  0  0  0  0  0  0  0  0  0  0  0
   -1.5172    2.1444    0.0000 C   0  0  0  0  0  0  0  0  0  0  0  0
   -0.6698    0.9066    0.0000 C   0  0  0  0  0  0  0  0  0  0  0  0
   -1.3181   -0.4461    0.0000 C   0  0  0  0  0  0  0  0  0  0  0  0
   -1.9664   -1.7987    0.0000 C   0  0  0  0  0  0  0  0  0  0  0  0
   -0.4708   -1.6838    0.0000 C   0  0  0  0  0  0  0  0  0  0  0  0
    1.0248   -1.5689    0.0000 C   0  0  0  0  0  0  0  0  0  0  0  0
    1.6731   -0.2162    0.0000 C   0  0  0  0  0  0  0  0  0  0  0  0
    2.5204   -1.4539    0.0000 C   0  0  0  0  0  0  0  0  0  0  0  0
    3.1687   -0.1013    0.0000 C   0  0  0  0  0  0  0  0  0  0  0  0
    4.0160   -1.3390    0.0000 C   0  0  0  0  0  0  0  0  0  0  0  0
    5.5116   -1.2241    0.0000 C   0  0  0  0  0  0  0  0  0  0  0  0
    6.9563   -1.6276    0.0000 C   0  0  0  0  0  0  0  0  0  0  0  0
    5.3651   -2.7169    0.0000 C   0  0  0  0  0  0  0  0  0  0  0  0
    6.1598    0.1286    0.0000 C   0  0  0  0  0  0  0  0  0  0  0  0
    5.3125    1.3664    0.0000 C   0  0  0  0  0  0  0  0  0  0  0  0
    3.8169    1.2514    0.0000 C   0  0  0  0  0  0  0  0  0  0  0  0
    4.4652    2.6041    0.0000 C   0  0  0  0  0  0  0  0  0  0  0  0
    2.9696    2.4892    0.0000 C   0  0  0  0  0  0  0  0  0  0  0  0
    1.4740    2.3742    0.0000 C   0  0  0  0  0  0  0  0  0  0  0  0
    0.8257    1.0216    0.0000 C   0  0  0  0  0  0  0  0  0  0  0  0
   -0.0216    2.2593    0.0000 C   0  0  0  0  0  0  0  0  0  0  0  0
  2  1  1  6
  2  3  1  0
  3  4  2  0
  3  5  1  0
  5  6  1  0
  6  7  1  6
  8  6  1  6
  8  9  1  0
  9 10  1  6
  9 11  1  0
 11 12  1  0
 12 13  1  0
 13 14  1  0
 14 15  1  6
 14 16  1  0
 16 17  1  0
 17 18  1  0
 18 19  1  1
 18 20  1  0
 20 21  1  1
 21 22  1  0
 22 23  1  0
 22 24  1  0
 22 25  1  0
 25 26  1  0
 26 27  1  0
 27 28  1  6
 27 29  1  0
 29 30  1  0
 30 31  1  0
 31 32  1  6
  9  2  1  0
 31 13  1  0
 14  8  1  0
 31 18  1  0
 27 20  1  0
M  END
>  <identifier>  (414) 
CNP0287600.1

>  <canonical_smiles>  (414) 
C[C@H]1C(=O)C[C@@H](O)[C@@H]2[C@]1(C)CCC1[C@@]2(C)CC[C@@]2(C)[C@@H]3CC(C)(C)CC[C@]3(C)CC[C@]12C

>  <standard_inchi>  (414) 
InChI=1S/C30H50O2/c1-19-20(31)17-21(32)24-27(19,5)10-9-22-28(24,6)14-16-30(8)23-18-25(2,3)11-12-26(23,4)13-15-29(22,30)7/h19,21-24,32H,9-18H2,1-8H3/t19-,21+,22?,23+,24+,26+,27+,28+,29+,30-/m0/s1

>  <standard_inchi_key>  (414) 
BFXGCIAJMLLIBE-ZIEQGISRSA-N

>  <name>  (414) 
nan

>  <iupac_name>  (414) 
(1~{R},4~{R},4~{a}~{S},6~{a}~{S},6~{b}~{R},8~{a}~{R},12~{a}~{R},14~{a}~{R},14~{b}~{S})-1-hydroxy-4,4~{a},6~{a},6~{b},8~{a},11,11,14~{a}-octamethyl-2,4,5,6,6~{a},7,8,9,10,12,12~{a},13,14,14~{b}-tetradecahydro-1~{H}-picen-3-one

>  <annotation_level>  (414) 
5

>  <total_atom_count>  (414) 
82

>  <heavy_atom_count>  (414) 
32

>  <molecular_weight>  (414) 
442.73

>  <exact_molecular_weight>  (414) 
442.38108

>  <molecular_formula>  (414) 
C30H50O2

>  <alogp>  (414) 
7.43

>  <topological_polar_surface_area>  (414) 
37.30

>  <rotatable_bond_count>  (414) 
0

>  <hydrogen_bond_acceptors>  (414) 
2

>  <hydrogen_bond_donors>  (414) 
1

>  <hydrogen_bond_acceptors_lipinski>  (414) 
2

>  <hydrogen_bond_donors_lipinski>  (414) 
1

>  <lipinski_rule_of_five_violations>  (414) 
1

>  <aromatic_rings_count>  (414) 
0

>  <qed_drug_likeliness>  (414) 
0.42

>  <formal_charge>  (414) 
0

>  <fractioncsp3>  (414) 
0.97

>  <number_of_minimal_rings>  (414) 
5

>  <van_der_walls_volume>  (414) 
453.59

>  <contains_sugar>  (414) 
False

>  <contains_ring_sugars>  (414) 
False

>  <contains_linear_sugars>  (414) 
False

>  <murcko_framework>  (414) 
C1CCC2C(C1)CCC3C2CCC4C5CCCCC5CCC43

>  <np_likeness>  (414) 
2.85

>  <chemical_class>  (414) 
Prenol lipids

>  <chemical_sub_class>  (414) 
Triterpenoids

>  <chemical_super_class>  (414) 
Lipids and lipid-like molecules

>  <direct_parent_classification>  (414) 
Taraxerane, multiflorane, glutinane and friedelane triterpenoids

>  <np_classifier_pathway>  (414) 
Terpenoids

>  <np_classifier_superclass>  (414) 
Triterpenoids

>  <np_classifier_class>  (414) 
Friedelane triterpenoids

>  <np_classifier_is_glycoside>  (414) 
False

>  <organisms>  (414) 
Garcia parviflora

>  <collections>  (414) 
BIOFACQUIM|Latin America dataset

>  <dois>  (414) 
10.1021/np100440p

>  <synonyms>  (414) 
1\u0152\u2264-hydroxyfriedelin

>  <cas>  (414) 
nan

$$$$

     RDKit          2D

 33 37  0  0  0  0  0  0  0  0999 V2000
   -5.8710   -2.5489    0.0000 C   0  0  0  0  0  0  0  0  0  0  0  0
   -5.9113   -1.0494    0.0000 C   0  0  0  0  0  0  0  0  0  0  0  0
   -7.3809   -1.3494    0.0000 C   0  0  0  0  0  0  0  0  0  0  0  0
   -6.4619    0.3459    0.0000 C   0  0  0  0  0  0  0  0  0  0  0  0
   -5.5289    1.5204    0.0000 C   0  0  0  0  0  0  0  0  0  0  0  0
   -4.0452    1.2996    0.0000 C   0  0  0  0  0  0  0  0  0  0  0  0
   -4.5959    2.6949    0.0000 C   0  0  0  0  0  0  0  0  0  0  0  0
   -3.1122    2.4741    0.0000 C   0  0  0  0  0  0  0  0  0  0  0  0
   -1.6286    2.2534    0.0000 C   0  0  0  0  0  0  0  0  0  0  0  0
   -1.0779    0.8581    0.0000 C   0  0  0  0  0  0  0  0  0  0  0  0
   -0.1449    2.0326    0.0000 C   0  0  0  0  0  0  0  0  0  0  0  0
    0.4058    0.6374    0.0000 C   0  0  0  0  0  0  0  0  0  0  0  0
    1.3388    1.8119    0.0000 C   0  0  0  0  0  0  0  0  0  0  0  0
    2.8224    1.5911    0.0000 C   0  0  0  0  0  0  0  0  0  0  0  0
    3.3731    0.1959    0.0000 C   0  0  0  0  0  0  0  0  0  0  0  0
    4.3061    1.3704    0.0000 C   0  0  0  0  0  0  0  0  0  0  0  0
    2.4401   -0.9786    0.0000 C   0  0  0  0  0  0  0  0  0  0  0  0
    2.9908   -2.3739    0.0000 C   0  0  0  0  0  0  0  0  0  0  0  0
    4.4744   -2.5947    0.0000 C   0  0  0  0  0  0  0  0  0  0  0  0
    5.4074   -1.4201    0.0000 C   0  0  0  0  0  0  0  0  0  0  0  0
    6.8911   -1.6409    0.0000 O   0  0  0  0  0  0  0  0  0  0  0  0
    4.8568   -0.0249    0.0000 C   0  0  0  0  0  0  0  0  0  0  0  0
    5.7898    1.1496    0.0000 C   0  0  0  0  0  0  0  0  0  0  0  0
    5.2391    2.5449    0.0000 O   0  0  0  0  0  0  0  0  0  0  0  0
    7.2734    0.9289    0.0000 O   0  0  0  0  0  0  0  0  0  0  0  0
    0.9564   -0.7579    0.0000 C   0  0  0  0  0  0  0  0  0  0  0  0
    1.5071   -2.1532    0.0000 C   0  0  0  0  0  0  0  0  0  0  0  0
    0.0234   -1.9324    0.0000 C   0  0  0  0  0  0  0  0  0  0  0  0
   -1.4603   -1.7117    0.0000 C   0  0  0  0  0  0  0  0  0  0  0  0
   -2.0109   -0.3164    0.0000 C   0  0  0  0  0  0  0  0  0  0  0  0
   -2.9439   -1.4909    0.0000 C   0  0  0  0  0  0  0  0  0  0  0  0
   -3.4946   -0.0956    0.0000 C   0  0  0  0  0  0  0  0  0  0  0  0
   -4.4276   -1.2702    0.0000 C   0  0  0  0  0  0  0  0  0  0  0  0
  1  2  1  0
  2  3  1  0
  2  4  1  0
  4  5  1  0
  5  6  1  0
  6  7  1  1
  6  8  1  0
  8  9  1  0
  9 10  1  0
 10 11  1  1
 10 12  1  0
 12 13  1  0
 13 14  1  0
 14 15  1  0
 15 16  1  1
 15 17  1  0
 17 18  1  1
 18 19  1  0
 19 20  1  0
 20 21  1  1
 20 22  1  0
 22 23  1  1
 23 24  2  0
 23 25  1  0
 17 26  1  0
 26 27  1  1
 26 28  1  0
 28 29  1  0
 29 30  1  0
 30 31  1  6
 30 32  1  0
 32 33  1  6
 33  2  1  0
 32  6  1  0
 30 10  1  0
 26 12  1  0
 22 15  1  0
M  END
>  <identifier>  (415) 
CNP0153843.1

>  <canonical_smiles>  (415) 
CC1(C)CC[C@]2(C)CC[C@]3(C)C4CC[C@@]5(C)[C@@H](CC[C@H](O)[C@@H]5C(=O)O)[C@]4(C)CC[C@@]3(C)[C@@H]2C1

>  <standard_inchi>  (415) 
InChI=1S/C30H50O3/c1-25(2)12-13-26(3)14-16-29(6)21-10-11-28(5)20(9-8-19(31)23(28)24(32)33)27(21,4)15-17-30(29,7)22(26)18-25/h19-23,31H,8-18H2,1-7H3,(H,32,33)/t19-,20-,21?,22+,23+,26+,27-,28-,29+,30-/m0/s1

>  <standard_inchi_key>  (415) 
DZRZUQDDJQGNEQ-XPHLRVIGSA-N

>  <name>  (415) 
nan

>  <iupac_name>  (415) 
(3~{S},4~{R},4~{a}~{S},6~{a}~{S},6~{b}~{R},8~{a}~{R},12~{a}~{R},14~{a}~{S},14~{b}~{S})-3-hydroxy-4~{a},6~{a},6~{b},8~{a},11,11,14~{a}-heptamethyl-1,2,3,4,5,6,6~{a},7,8,9,10,12,12~{a},13,14,14~{b}-hexadecahydropicene-4-carboxylic acid

>  <annotation_level>  (415) 
5

>  <total_atom_count>  (415) 
83

>  <heavy_atom_count>  (415) 
33

>  <molecular_weight>  (415) 
458.73

>  <exact_molecular_weight>  (415) 
458.376

>  <molecular_formula>  (415) 
C30H50O3

>  <alogp>  (415) 
7.31

>  <topological_polar_surface_area>  (415) 
57.53

>  <rotatable_bond_count>  (415) 
1

>  <hydrogen_bond_acceptors>  (415) 
2

>  <hydrogen_bond_donors>  (415) 
2

>  <hydrogen_bond_acceptors_lipinski>  (415) 
2

>  <hydrogen_bond_donors_lipinski>  (415) 
2

>  <lipinski_rule_of_five_violations>  (415) 
1

>  <aromatic_rings_count>  (415) 
0

>  <qed_drug_likeliness>  (415) 
0.43

>  <formal_charge>  (415) 
0

>  <fractioncsp3>  (415) 
0.97

>  <number_of_minimal_rings>  (415) 
5

>  <van_der_walls_volume>  (415) 
459.83

>  <contains_sugar>  (415) 
False

>  <contains_ring_sugars>  (415) 
False

>  <contains_linear_sugars>  (415) 
False

>  <murcko_framework>  (415) 
C1CCC2C(C1)CCC3C2CCC4C5CCCCC5CCC43

>  <np_likeness>  (415) 
2.42

>  <chemical_class>  (415) 
Prenol lipids

>  <chemical_sub_class>  (415) 
Triterpenoids

>  <chemical_super_class>  (415) 
Lipids and lipid-like molecules

>  <direct_parent_classification>  (415) 
Taraxerane, multiflorane, glutinane and friedelane triterpenoids

>  <np_classifier_pathway>  (415) 
Terpenoids

>  <np_classifier_superclass>  (415) 
Triterpenoids

>  <np_classifier_class>  (415) 
Friedelane triterpenoids

>  <np_classifier_is_glycoside>  (415) 
False

>  <organisms>  (415) 
Garcia parviflora

>  <collections>  (415) 
BIOFACQUIM|Latin America dataset

>  <dois>  (415) 
10.1021/np100440p

>  <synonyms>  (415) 
3\u0152\u2264-hydroxyfriedelan-23-oic acid

>  <cas>  (415) 
nan

$$$$

     RDKit          2D

 15 15  0  0  0  0  0  0  0  0999 V2000
   -5.5053    0.0429    0.0000 C   0  0  0  0  0  0  0  0  0  0  0  0
   -4.0449    0.3855    0.0000 C   0  0  0  0  0  0  0  0  0  0  0  0
   -3.0181   -0.7079    0.0000 C   0  0  0  0  0  0  0  0  0  0  0  0
   -1.5577   -0.3654    0.0000 C   0  0  0  0  0  0  0  0  0  0  0  0
   -1.1242    1.0706    0.0000 C   0  0  0  0  0  0  0  0  0  0  0  0
    0.3362    1.4132    0.0000 C   0  0  0  0  0  0  0  0  0  0  0  0
    0.7697    2.8491    0.0000 O   0  0  0  0  0  0  0  0  0  0  0  0
    2.2301    3.1917    0.0000 C   0  0  0  0  0  0  0  0  0  0  0  0
    1.3630    0.3197    0.0000 C   0  0  0  0  0  0  0  0  0  0  0  0
    2.8234    0.6623    0.0000 O   0  0  0  0  0  0  0  0  0  0  0  0
    3.8502   -0.4312    0.0000 C   0  0  0  0  0  0  0  0  0  0  0  0
    0.9295   -1.1163    0.0000 C   0  0  0  0  0  0  0  0  0  0  0  0
    1.9563   -2.2097    0.0000 O   0  0  0  0  0  0  0  0  0  0  0  0
    1.5228   -3.6457    0.0000 C   0  0  0  0  0  0  0  0  0  0  0  0
   -0.5309   -1.4588    0.0000 C   0  0  0  0  0  0  0  0  0  0  0  0
  1  2  2  0
  2  3  1  0
  3  4  1  0
  4  5  2  0
  5  6  1  0
  6  7  1  0
  7  8  1  0
  6  9  2  0
  9 10  1  0
 10 11  1  0
  9 12  1  0
 12 13  1  0
 13 14  1  0
 12 15  2  0
 15  4  1  0
M  END
>  <identifier>  (416) 
CNP0286854.0

>  <canonical_smiles>  (416) 
C=CCC1=CC(OC)=C(OC)C(OC)=C1

>  <standard_inchi>  (416) 
InChI=1S/C12H16O3/c1-5-6-9-7-10(13-2)12(15-4)11(8-9)14-3/h5,7-8H,1,6H2,2-4H3

>  <standard_inchi_key>  (416) 
BPLQKQKXWHCZSS-UHFFFAOYSA-N

>  <name>  (416) 
Elemicin

>  <iupac_name>  (416) 
5-allyl-1,2,3-trimethoxy-benzene

>  <annotation_level>  (416) 
5

>  <total_atom_count>  (416) 
31

>  <heavy_atom_count>  (416) 
15

>  <molecular_weight>  (416) 
208.26

>  <exact_molecular_weight>  (416) 
208.10994

>  <molecular_formula>  (416) 
C12H16O3

>  <alogp>  (416) 
2.44

>  <topological_polar_surface_area>  (416) 
27.69

>  <rotatable_bond_count>  (416) 
5

>  <hydrogen_bond_acceptors>  (416) 
3

>  <hydrogen_bond_donors>  (416) 
0

>  <hydrogen_bond_acceptors_lipinski>  (416) 
3

>  <hydrogen_bond_donors_lipinski>  (416) 
0

>  <lipinski_rule_of_five_violations>  (416) 
0

>  <aromatic_rings_count>  (416) 
1

>  <qed_drug_likeliness>  (416) 
0.70

>  <formal_charge>  (416) 
0

>  <fractioncsp3>  (416) 
0.33

>  <number_of_minimal_rings>  (416) 
1

>  <van_der_walls_volume>  (416) 
204.02

>  <contains_sugar>  (416) 
False

>  <contains_ring_sugars>  (416) 
False

>  <contains_linear_sugars>  (416) 
False

>  <murcko_framework>  (416) 
c1ccccc1

>  <np_likeness>  (416) 
0.65

>  <chemical_class>  (416) 
Phenol ethers

>  <chemical_sub_class>  (416) 
Anisoles

>  <chemical_super_class>  (416) 
Benzenoids

>  <direct_parent_classification>  (416) 
Anisoles

>  <np_classifier_pathway>  (416) 
Shikimates and Phenylpropanoids

>  <np_classifier_superclass>  (416) 
Phenylpropanoids (C6-C3)

>  <np_classifier_class>  (416) 
Cinnamic acids and derivatives

>  <np_classifier_is_glycoside>  (416) 
False

>  <organisms>  (416) 
Aconitum episcopale|Aconitum leucostomum|Acorus calamus|Acorus gramineus|Acorus tatarinowii|Actaea dahurica|Actaea heracleifolia|Actaea simplex|Agastache rugosus|Anarsia lineatella|Andinobates fulguritus|Anemopsis californica|Angelica pubescens|Aniba spp.|Anoplophora chinensis|Apollonias barbujana|Aquilegia ecalcarata|Ardisia arborescens|Armillaria edodes|Aromia moschata|Artemisia abrotanum L.|Artemisia annua L.|Artemisia capillaris|Artemisia hanseniana|Asarum caulescens|Asarum europaeum L.|Asarum forbesii|Asarum heterotropoides|Asarum heterotropoides f. schm. var. mandshuricum (maxim.) kitag.|Asarum heterotropoides var. mandshuricum|Asarum sieboldii|Asiasarum heterotropoides|Asiasarum sieboldii|Athrotaxis selaginoides|Atractylodes lancea|Backhousia myrtifolia|Blumea mollis|Boronia pinnata|Bridelia retusa|Bupleurum scorzonerifolium|Cacia concinna|Canarium commune|Castilleja sulphurea|Catalpa bignonioides|Ceanothus velutinus|Cephalonoplos segetum|Chlorophytum borivilianum|Cimicifuga foetida|Cinnamomum glanduliferum|Comaster multifida|Conyza steudellii|Cornus officinalis|Croton nepetaefolius|Cymbopogon goeringii|Cymbopogon procerus|Dalbergia spruceana|Daucus carota|Daucus carota subsp. carota|Daucus carota subsp. sativus (Hoffm.) Schuebl. & G. Martens|Dioscorea sativa|Diospyros melanoxylon|Dipterocarpus dyeri|Dryobalanops aromatica|Ecionemia geodides|Esenbeckia nesiotica|Eucalyptus hybrid|Foeniculum vulgare|Forsythia japonica|Fragaria vesca|Fructus amomi|Fructus amomi rotundus|Garcia parviflora|Garcinia oligantha|Garcinia scortechinii|Gardenia tubifera|Gymnosporia trigyna|Helipterum tenellum|Heterotropha curvistigma|Heterotropha hexaloba|Heterotropha nipponca|Homo sapiens|Huperzia miyoshiana|Hyptis tomentosa|Ipomoea cairica|Ipomoea cristulata|Iris spuria|Isodon lophanthoides|Isodon rubescens|Kopsia grandifolia|Lachnoanaerobaculum saburreum|Lasianthus fordii|Ledebouria socialis|Lens phaseoloides|Lindera aggregata|Lophozonia menziesii|Lycopus europaeus|Macropiper excelsum|Melaleuca bracteata|Micranthemum umbrosum|Monopterix uaucu|Monopteryx uaucu|Myristica fragrans|Pagrus major|Panax ginseng|Panax innovans|Panax pseudo - ginseng var. notoginseng|Pancratium trianthum|Parmelia vittata|Penicillium cinerascens|Perilla frutescens|Perilla frutescens (l.) britt. var. crispa (thunb.) hand.-mazz.|Perilla frutescens var. acuta|Perilla frutescens var. crispa|Persea mexicana|Petroselinum crispum|Petroselinum crispum (Mill.) Fuss|Pinellia ternata|Piper banksii|Piper brachystachyum|Piper kadsura|Piper pedicellosum|Piper solmsianum|Pocillopora damicornis|Pogostemon cablin|Polygala sibirica|Polygala tenuifolia|Protaetia cuprea|Pseudobrickellia brasiliensis|Rabdosia rubescens|Rhizoma arisaema cum bile|Rhodobacter sphaeroides|Rhododendron latoucheae|Rhodotypos scandens|Rubus trifidus|Saururus chinensis|Saussurea lappa|Schisandra chinensis|Schizonepeta tenuifolia|Scutellaria barbata|Sordaria araneosa|Streptomyces amakusaensis|Uvariodendron connivens|Xanthostemon oppositifolius|Zieria arborescens|Zieria smithii|Zingiber officinale

>  <collections>  (416) 
ANPDB|Australian natural products|BIOFACQUIM|CMAUP (cCollective molecular activities of useful plants)|ChEBI NPs|EMNPD|ETM (Ethiopian Traditional Medicine) DB|FooDB|HIM (Herbal Ingredients in-vivo Metabolism database)|KNApSaCK|Latin America dataset|NANPDB (Natural Products from Northern African Sources)|NPASS|NPEdia|NuBBEDB|Phyto4Health|Super Natural II|TCMDB-Taiwan (Traditional Chinese Medicine database)|TCMID (Traditional Chinese Medicine Integrated Database)|TPPT (Toxic Plants–PhytoToxins)|UNPD (Universal Natural Products Database)|VietHerb

>  <dois>  (416) 
10.1002/9780470744307.gat218|10.1002/biuz.19840140514|10.1002/food.19880321030|10.1016/0031-9422(81)85097-2|10.1016/0031-9422(91)83736-5|10.1016/s0031-9422(00)82268-2|10.1021/acs.jnatprod.9b00520|10.1021/np100440p

>  <synonyms>  (416) 
487-11-6|5-Allyl-1|2|3-trimethoxybenzene|Elemicine|3|4|5-Trimethoxyallylbenzene|1|2|3-trimethoxy-5-prop-2-enylbenzene|Benzene| 1|2|3-trimethoxy-5-(2-propenyl)-|1|2|3-Trimethoxy-5-(2-propenyl)benzene|BENZENE| 5-ALLYL-1|2|3-TRIMETHOXY-|3-(3|4|5-Trimethoxyphenyl)-1-propene|HSZ191AKAN|CHEBI:4771|MFCD01656688|NSC-16704|Benzene| 5-(2-propenyl)-1|2|3-trimethoxy|CCRIS 6783|EINECS 207-649-0|UNII-HSZ191AKAN|NSC 16704|BRN 1912664|AI3-20815|5'-metoxy eugenol|5-(Prop-2-en-1-yl)-1|2|3-trimethoxybenzene|SCHEMBL68542|4-06-00-07478 (Beilstein Handbook Reference)|CHEMBL458690|DTXSID60197586|1|2|3-Trimethoxy-5-allylbenzene|HY-N6807|s5120|AKOS015896443|CCG-266643|PS-4970|1-ALLYL-3|4|5-TRIMETHOXYBENZENE|DB-081347|1|2|3-Trimethoxy-5-allylbenzene (elemicin)|CS-0030665|NS00022224|1-(3|4|5-TRIMETHOXYPHENYL)-2-PROPENE|A827594|Q417746|4-(2-Ethyl-benzoimidazol-1-yl)-4-oxo-butyricacid|5-(PROP-2-ENYL)-1|2|3-TRIMETHOXYBENZENE|J-520432|BENZENE| 1|2|3-TRIMETHOXY-5-(2-PROPEN-1-YL)-|elemicin|Elemicin| 345-trimethoxyallylbenzene

>  <cas>  (416) 
487-11-6

$$$$

     RDKit          2D

 16 16  0  0  0  0  0  0  0  0999 V2000
   -4.8114    0.5391    0.0000 C   0  0  0  0  0  0  0  0  0  0  0  0
   -3.3350    0.8040    0.0000 C   0  0  0  0  0  0  0  0  0  0  0  0
   -2.3674   -0.3422    0.0000 C   0  0  0  0  0  0  0  0  0  0  0  0
   -2.8762   -1.7533    0.0000 O   0  0  0  0  0  0  0  0  0  0  0  0
   -0.8910   -0.0773    0.0000 C   0  0  0  0  0  0  0  0  0  0  0  0
   -0.3821    1.3337    0.0000 C   0  0  0  0  0  0  0  0  0  0  0  0
    1.0943    1.5986    0.0000 C   0  0  0  0  0  0  0  0  0  0  0  0
    1.6031    3.0096    0.0000 O   0  0  0  0  0  0  0  0  0  0  0  0
    0.6355    4.1558    0.0000 C   0  0  0  0  0  0  0  0  0  0  0  0
    2.0619    0.4524    0.0000 C   0  0  0  0  0  0  0  0  0  0  0  0
    3.5383    0.7172    0.0000 O   0  0  0  0  0  0  0  0  0  0  0  0
    1.5531   -0.9587    0.0000 C   0  0  0  0  0  0  0  0  0  0  0  0
    2.5207   -2.1049    0.0000 O   0  0  0  0  0  0  0  0  0  0  0  0
    2.0118   -3.5159    0.0000 C   0  0  0  0  0  0  0  0  0  0  0  0
    0.0766   -1.2235    0.0000 C   0  0  0  0  0  0  0  0  0  0  0  0
   -0.4322   -2.6346    0.0000 O   0  0  0  0  0  0  0  0  0  0  0  0
  1  2  1  0
  2  3  1  0
  3  4  2  0
  3  5  1  0
  5  6  2  0
  6  7  1  0
  7  8  1  0
  8  9  1  0
  7 10  2  0
 10 11  1  0
 10 12  1  0
 12 13  1  0
 13 14  1  0
 12 15  2  0
 15 16  1  0
 15  5  1  0
M  END
>  <identifier>  (417) 
CNP0266459.0

>  <canonical_smiles>  (417) 
CCC(=O)C1=CC(OC)=C(O)C(OC)=C1O

>  <standard_inchi>  (417) 
InChI=1S/C11H14O5/c1-4-7(12)6-5-8(15-2)10(14)11(16-3)9(6)13/h5,13-14H,4H2,1-3H3

>  <standard_inchi_key>  (417) 
DMZJXYVZVWKSFA-UHFFFAOYSA-N

>  <name>  (417) 
4-hydroxy-5-propionyl-1,3-di-o-methylpyrogallol

>  <iupac_name>  (417) 
1-(2,4-dihydroxy-3,5-dimethoxy-phenyl)propan-1-one

>  <annotation_level>  (417) 
5

>  <total_atom_count>  (417) 
30

>  <heavy_atom_count>  (417) 
16

>  <molecular_weight>  (417) 
226.23

>  <exact_molecular_weight>  (417) 
226.08412

>  <molecular_formula>  (417) 
C11H14O5

>  <alogp>  (417) 
1.71

>  <topological_polar_surface_area>  (417) 
75.99

>  <rotatable_bond_count>  (417) 
4

>  <hydrogen_bond_acceptors>  (417) 
5

>  <hydrogen_bond_donors>  (417) 
2

>  <hydrogen_bond_acceptors_lipinski>  (417) 
5

>  <hydrogen_bond_donors_lipinski>  (417) 
2

>  <lipinski_rule_of_five_violations>  (417) 
0

>  <aromatic_rings_count>  (417) 
1

>  <qed_drug_likeliness>  (417) 
0.76

>  <formal_charge>  (417) 
0

>  <fractioncsp3>  (417) 
0.36

>  <number_of_minimal_rings>  (417) 
1

>  <van_der_walls_volume>  (417) 
203.34

>  <contains_sugar>  (417) 
False

>  <contains_ring_sugars>  (417) 
False

>  <contains_linear_sugars>  (417) 
False

>  <murcko_framework>  (417) 
c1ccccc1

>  <np_likeness>  (417) 
0.92

>  <chemical_class>  (417) 
Organooxygen compounds

>  <chemical_sub_class>  (417) 
Carbonyl compounds

>  <chemical_super_class>  (417) 
Organic oxygen compounds

>  <direct_parent_classification>  (417) 
Alkyl-phenylketones

>  <np_classifier_pathway>  (417) 
Polyketides

>  <np_classifier_superclass>  (417) 
nan

>  <np_classifier_class>  (417) 
nan

>  <np_classifier_is_glycoside>  (417) 
False

>  <organisms>  (417) 
Garcia parviflora

>  <collections>  (417) 
BIOFACQUIM|CMAUP (cCollective molecular activities of useful plants)|ChEBI NPs|Latin America dataset|NPASS|UNPD (Universal Natural Products Database)

>  <dois>  (417) 
10.1021/np100440p

>  <synonyms>  (417) 
CHEBI:70419|1-(2|4-dihydroxy-3|5-dimethoxyphenyl)propan-1-one|Q27138757|4-hydroxy-5-propionyl-1 3-di-O-methylpyrogallol

>  <cas>  (417) 
nan

$$$$

     RDKit          2D

 13 13  0  0  0  0  0  0  0  0999 V2000
    4.9358    0.3235    0.0000 C   0  0  0  0  0  0  0  0  0  0  0  0
    3.5784    0.9618    0.0000 O   0  0  0  0  0  0  0  0  0  0  0  0
    2.3469    0.1054    0.0000 C   0  0  0  0  0  0  0  0  0  0  0  0
    2.4728   -1.3893    0.0000 O   0  0  0  0  0  0  0  0  0  0  0  0
    0.9895    0.7437    0.0000 C   0  0  0  0  0  0  0  0  0  0  0  0
   -0.2420   -0.1126    0.0000 C   0  0  0  0  0  0  0  0  0  0  0  0
    0.8152   -1.1767    0.0000 O   0  0  0  0  0  0  0  0  0  0  0  0
   -1.1063   -1.3386    0.0000 C   0  0  0  0  0  0  0  0  0  0  0  0
   -2.6002   -1.2030    0.0000 C   0  0  0  0  0  0  0  0  0  0  0  0
   -3.2297    0.1585    0.0000 C   0  0  0  0  0  0  0  0  0  0  0  0
   -4.7236    0.2940    0.0000 O   0  0  0  0  0  0  0  0  0  0  0  0
   -2.3654    1.3844    0.0000 C   0  0  0  0  0  0  0  0  0  0  0  0
   -0.8715    1.2489    0.0000 C   0  0  0  0  0  0  0  0  0  0  0  0
  1  2  1  0
  2  3  1  0
  3  4  2  0
  3  5  1  0
  5  6  1  0
  6  7  1  0
  6  8  1  0
  8  9  2  0
  9 10  1  0
 10 11  2  0
 10 12  1  0
 12 13  2  0
 13  6  1  0
M  END
>  <identifier>  (418) 
CNP0209156.0

>  <canonical_smiles>  (418) 
COC(=O)CC1(O)C=CC(=O)C=C1

>  <standard_inchi>  (418) 
InChI=1S/C9H10O4/c1-13-8(11)6-9(12)4-2-7(10)3-5-9/h2-5,12H,6H2,1H3

>  <standard_inchi_key>  (418) 
WJZSKNRPRWCLLK-UHFFFAOYSA-N

>  <name>  (418) 
Jacaranone

>  <iupac_name>  (418) 
methyl 2-(1-hydroxy-4-oxo-cyclohexa-2,5-dien-1-yl)acetate

>  <annotation_level>  (418) 
5

>  <total_atom_count>  (418) 
23

>  <heavy_atom_count>  (418) 
13

>  <molecular_weight>  (418) 
182.17

>  <exact_molecular_weight>  (418) 
182.05791

>  <molecular_formula>  (418) 
C9H10O4

>  <alogp>  (418) 
-0.02

>  <topological_polar_surface_area>  (418) 
63.60

>  <rotatable_bond_count>  (418) 
2

>  <hydrogen_bond_acceptors>  (418) 
4

>  <hydrogen_bond_donors>  (418) 
1

>  <hydrogen_bond_acceptors_lipinski>  (418) 
4

>  <hydrogen_bond_donors_lipinski>  (418) 
1

>  <lipinski_rule_of_five_violations>  (418) 
0

>  <aromatic_rings_count>  (418) 
0

>  <qed_drug_likeliness>  (418) 
0.61

>  <formal_charge>  (418) 
0

>  <fractioncsp3>  (418) 
0.33

>  <number_of_minimal_rings>  (418) 
1

>  <van_der_walls_volume>  (418) 
162.19

>  <contains_sugar>  (418) 
False

>  <contains_ring_sugars>  (418) 
False

>  <contains_linear_sugars>  (418) 
False

>  <murcko_framework>  (418) 
C1=CCC=CC1

>  <np_likeness>  (418) 
1.95

>  <chemical_class>  (418) 
Organooxygen compounds

>  <chemical_sub_class>  (418) 
Alcohols and polyols

>  <chemical_super_class>  (418) 
Organic oxygen compounds

>  <direct_parent_classification>  (418) 
Tertiary alcohols

>  <np_classifier_pathway>  (418) 
Shikimates and Phenylpropanoids

>  <np_classifier_superclass>  (418) 
nan

>  <np_classifier_class>  (418) 
nan

>  <np_classifier_is_glycoside>  (418) 
False

>  <organisms>  (418) 
Alpinia chinensis|Apis mellifera|Apis mellifera ligustica|Carassius auratus|Centaurea depressa|Cineraria canescens|Dysoxylum binectariferum|Emilia coccinea|Emilia sonchifolia|Francoeuria crispa|Jacaranda glabra|Jacobaea abrotanifolia|Jurinea leptoloba|Lecaniodiscus cupanioides|Magnolia doltsopa|Packera anonyma|Penicillium griseofulvum|Phorbia falcata|Senecio abrotanifolius|Senecio vulgaris|Ternstroemia pringlei|Vochysia guianensis|[clostridium] stercorarium subsp. leptospartum

>  <collections>  (418) 
Australian natural products|BIOFACQUIM|CMAUP (cCollective molecular activities of useful plants)|Latin America dataset|Marine Natural Products|NPACT|NPASS|Super Natural II|TCMDB-Taiwan (Traditional Chinese Medicine database)|TCMID (Traditional Chinese Medicine Integrated Database)|UNPD (Universal Natural Products Database)|VietHerb|ZINC NP

>  <dois>  (418) 
10.1016/j.jep.2009.11.020|10.1021/np50021a024|10.1021/np900528m|10.3184/030823410x12830855365409

>  <synonyms>  (418) 
60263-07-2|methyl 2-(1-hydroxy-4-oxocyclohexa-2|5-dien-1-yl)acetate|NSC251682|Jacaramome|?jacaranone|CHEMBL469293|SCHEMBL19624651|WJZSKNRPRWCLLK-UHFFFAOYSA-|DTXSID70975675|1-Hydroxy-4-oxo-2|5-cyclohexadiene-1-acetic acid methyl ester|BDBM50480311|NSC289076|AKOS040762944|NCI60_002013|methyl (1-hydroxy-4-oxo-2|5-cyclohexandienyl)acetate|2|5-Cyclohexadiene-1-acetic acid| 1-hydroxy-4-oxo-| methyl ester|InChI=1\/C9H10O4\/c1-13-8(11)6-9(12)4-2-7(10)3-5-9\/h2-5|12H|6H2|1H3|Jacaranone

>  <cas>  (418) 
60263-07-2

$$$$

     RDKit          2D

 36 40  0  0  0  0  0  0  0  0999 V2000
   -9.3154    1.1298    0.0000 C   0  0  0  0  0  0  0  0  0  0  0  0
   -7.8182    1.2213    0.0000 C   0  0  0  0  0  0  0  0  0  0  0  0
   -7.1489    2.5637    0.0000 O   0  0  0  0  0  0  0  0  0  0  0  0
   -6.9904   -0.0295    0.0000 O   0  0  0  0  0  0  0  0  0  0  0  0
   -5.4932    0.0620    0.0000 C   0  0  0  0  0  0  0  0  0  0  0  0
   -4.8238    1.4043    0.0000 C   0  0  0  0  0  0  0  0  0  0  0  0
   -3.3266    1.4958    0.0000 C   0  0  0  0  0  0  0  0  0  0  0  0
   -2.4988    0.2450    0.0000 C   0  0  0  0  0  0  0  0  0  0  0  0
   -1.8294    1.5873    0.0000 C   0  0  0  0  0  0  0  0  0  0  0  0
   -1.0016    0.3365    0.0000 C   0  0  0  0  0  0  0  0  0  0  0  0
   -0.3322    1.6788    0.0000 C   0  0  0  0  0  0  0  0  0  0  0  0
    1.1650    1.7703    0.0000 C   0  0  0  0  0  0  0  0  0  0  0  0
    1.9929    0.5195    0.0000 C   0  0  0  0  0  0  0  0  0  0  0  0
    2.6622    1.8618    0.0000 C   0  0  0  0  0  0  0  0  0  0  0  0
    1.3235   -0.8229    0.0000 C   0  0  0  0  0  0  0  0  0  0  0  0
    2.1513   -2.0738    0.0000 C   0  0  0  0  0  0  0  0  0  0  0  0
    3.6485   -1.9823    0.0000 C   0  0  0  0  0  0  0  0  0  0  0  0
    4.3179   -0.6399    0.0000 C   0  0  0  0  0  0  0  0  0  0  0  0
    5.1458   -1.8908    0.0000 C   0  0  0  0  0  0  0  0  0  0  0  0
    6.6430   -1.7993    0.0000 O   0  0  0  0  0  0  0  0  0  0  0  0
    4.4764   -3.2332    0.0000 O   0  0  0  0  0  0  0  0  0  0  0  0
    5.8151   -0.5484    0.0000 C   0  0  0  0  0  0  0  0  0  0  0  0
    6.4845    0.7940    0.0000 C   0  0  0  0  0  0  0  0  0  0  0  0
    5.6566    2.0448    0.0000 C   0  0  0  0  0  0  0  0  0  0  0  0
    5.3065    3.5034    0.0000 C   0  0  0  0  0  0  0  0  0  0  0  0
    7.0323    2.6429    0.0000 C   0  0  0  0  0  0  0  0  0  0  0  0
    4.1594    1.9533    0.0000 C   0  0  0  0  0  0  0  0  0  0  0  0
    3.4901    0.6110    0.0000 C   0  0  0  0  0  0  0  0  0  0  0  0
   -0.1737   -0.9144    0.0000 C   0  0  0  0  0  0  0  0  0  0  0  0
    0.6541   -2.1653    0.0000 C   0  0  0  0  0  0  0  0  0  0  0  0
   -0.8431   -2.2568    0.0000 C   0  0  0  0  0  0  0  0  0  0  0  0
   -2.3403   -2.3483    0.0000 C   0  0  0  0  0  0  0  0  0  0  0  0
   -3.1681   -1.0974    0.0000 C   0  0  0  0  0  0  0  0  0  0  0  0
   -4.6653   -1.1889    0.0000 C   0  0  0  0  0  0  0  0  0  0  0  0
   -4.3152   -2.6475    0.0000 C   0  0  0  0  0  0  0  0  0  0  0  0
   -6.0410   -1.7870    0.0000 C   0  0  0  0  0  0  0  0  0  0  0  0
  1  2  1  0
  2  3  2  0
  2  4  1  0
  5  4  1  1
  5  6  1  0
  6  7  1  0
  7  8  1  0
  8  9  1  1
  8 10  1  0
 10 11  1  1
 11 12  1  0
 12 13  1  0
 13 14  1  6
 13 15  1  0
 15 16  2  0
 16 17  1  0
 17 18  1  0
 18 19  1  1
 19 20  2  0
 19 21  1  0
 18 22  1  0
 22 23  1  0
 23 24  1  0
 24 25  1  0
 24 26  1  0
 24 27  1  0
 28 27  1  6
 15 29  1  0
 29 30  1  1
 29 31  1  0
 31 32  1  0
 33 32  1  1
 33 34  1  0
 34 35  1  0
 34 36  1  0
 34  5  1  0
 33  8  1  0
 29 10  1  0
 28 13  1  0
 28 18  1  0
M  END
>  <identifier>  (419) 
CNP0172010.1

>  <canonical_smiles>  (419) 
CC(=O)O[C@H]1CC[C@]2(C)[C@H]3CC[C@]4(C)C(=CC[C@@]5(C(=O)O)CCC(C)(C)C[C@H]54)[C@]3(C)CC[C@H]2C1(C)C

>  <standard_inchi>  (419) 
InChI=1S/C32H50O4/c1-20(33)36-25-12-15-29(6)21(28(25,4)5)9-13-30(7)22(29)10-14-31(8)23(30)11-16-32(26(34)35)18-17-27(2,3)19-24(31)32/h11,21-22,24-25H,9-10,12-19H2,1-8H3,(H,34,35)/t21-,22+,24-,25-,29-,30+,31+,32+/m0/s1

>  <standard_inchi_key>  (419) 
UROPGAQBZGIPQC-VUHMTIHWSA-N

>  <name>  (419) 
Acetyl aleuritolic acid

>  <iupac_name>  (419) 
(4~{a}~{S},6~{a}~{R},6~{b}~{R},8~{a}~{R},10~{S},12~{a}~{R},14~{a}~{S},14~{b}~{S})-10-acetoxy-2,2,6~{b},9,9,12~{a},14~{a}-heptamethyl-1,3,4,5,6~{a},7,8,8~{a},10,11,12,13,14,14~{b}-tetradecahydropicene-4~{a}-carboxylic acid

>  <annotation_level>  (419) 
5

>  <total_atom_count>  (419) 
86

>  <heavy_atom_count>  (419) 
36

>  <molecular_weight>  (419) 
498.75

>  <exact_molecular_weight>  (419) 
498.37091

>  <molecular_formula>  (419) 
C32H50O4

>  <alogp>  (419) 
7.80

>  <topological_polar_surface_area>  (419) 
63.60

>  <rotatable_bond_count>  (419) 
2

>  <hydrogen_bond_acceptors>  (419) 
3

>  <hydrogen_bond_donors>  (419) 
1

>  <hydrogen_bond_acceptors_lipinski>  (419) 
3

>  <hydrogen_bond_donors_lipinski>  (419) 
1

>  <lipinski_rule_of_five_violations>  (419) 
1

>  <aromatic_rings_count>  (419) 
0

>  <qed_drug_likeliness>  (419) 
0.31

>  <formal_charge>  (419) 
0

>  <fractioncsp3>  (419) 
0.88

>  <number_of_minimal_rings>  (419) 
5

>  <van_der_walls_volume>  (419) 
496.13

>  <contains_sugar>  (419) 
False

>  <contains_ring_sugars>  (419) 
False

>  <contains_linear_sugars>  (419) 
False

>  <murcko_framework>  (419) 
C1=C2C(CCC3C2CCC4CCCCC43)C5CCCCC5C1

>  <np_likeness>  (419) 
2.91

>  <chemical_class>  (419) 
Prenol lipids

>  <chemical_sub_class>  (419) 
Sesterterpenoids

>  <chemical_super_class>  (419) 
Lipids and lipid-like molecules

>  <direct_parent_classification>  (419) 
Scalarane sesterterpenoids

>  <np_classifier_pathway>  (419) 
Terpenoids

>  <np_classifier_superclass>  (419) 
Triterpenoids

>  <np_classifier_class>  (419) 
Taraxerane triterpenoids

>  <np_classifier_is_glycoside>  (419) 
False

>  <organisms>  (419) 
Alchornea cordifolia|Clausena dunniana|Cleidion spiciflorum|Cleidion spiciflorum (Burm. f.) Merr.|Cnidoscolus vitifolius|Croton alienus|Croton megalocarpoides|Croton urucurana Baill.|Elateriospermum tapos|Garcia parviflora|Jatropha weddelliana|Maprounea africana|Neoboutonia glabrescens Prain|Neoboutonia macrocalyx|Phytolacca americana|Sapium discolor|Trianthema portulacastrum

>  <collections>  (419) 
ANPDB|BIOFACQUIM|CMAUP (cCollective molecular activities of useful plants)|ChEBI NPs|ChemSpider NPs|KNApSaCK|Latin America dataset|NANPDB (Natural Products from Northern African Sources)|NPASS|NuBBEDB|SANCDB|Super Natural II|TIPdb (database of Taiwan indigenous plants)|VietHerb

>  <dois>  (419) 
10.1016/S0031-9422(98)00069-7|10.1016/j.jep.2007.11.017|10.1016/j.jep.2014.12.018|10.1021/acs.jnatprod.8b00585|10.1021/np070629g|10.1021/np100440p|10.1021/np50105a017|10.1055/s-0033-1351044|10.1055/s-0042-108857

>  <synonyms>  (419) 
Acetylaleuritolic acid|28937-85-1|CHEBI:70418|Maprounic Acid Acetate|HEXADECNOIC ACID (ACETYLOXY) DIHYDROXY-|(4aS|6aR|6bR|8aR|10S|12aR|14aS|14bS)-10-acetyloxy-2|2|6b|9|9|12a|14a-heptamethyl-1|3|4|5|6a|7|8|8a|10|11|12|13|14|14b-tetradecahydropicene-4a-carboxylic acid|D-Friedoolean-14-en-28-oic acid| 3-(acetyloxy)-| (3beta)-|ALEURITOLIC ACID| ACETYL-|NSC 266221|(4as|6br|8ar|10s|12ar|12br|14as|14bs)-10-(acetyloxy)-2|2|6b|9|9|12a|14a-heptamethyl-1|3|4|5|6b|7|8|8a|9|10|11|12|12a|12b|13|14|14a|14b-octadecahydropicene-4a(2h)-carboxylic acid|CHEMBL439422|Hexadecanoic acid| (acetyloxy)dihydroxy-| (R*|S*)-(+-)-|BDBM50478510|AKOS040746500|3beta-acetoxyfriedoolean-14-ene-28-oic acid|Q27138756|3-O-acetyloleuritolic acid|D-Friedoolean-14-en-oic acid

>  <cas>  (419) 
28937-85-1

$$$$

     RDKit          2D

 30 33  0  0  0  0  0  0  0  0999 V2000
    7.0171    3.1724    0.0000 C   0  0  0  0  0  0  0  0  0  0  0  0
    5.5493    2.8635    0.0000 O   0  0  0  0  0  0  0  0  0  0  0  0
    5.0828    1.4379    0.0000 C   0  0  0  0  0  0  0  0  0  0  0  0
    6.0842    0.3211    0.0000 C   0  0  0  0  0  0  0  0  0  0  0  0
    7.5521    0.6300    0.0000 O   0  0  0  0  0  0  0  0  0  0  0  0
    5.6177   -1.1045    0.0000 C   0  0  0  0  0  0  0  0  0  0  0  0
    6.6191   -2.2213    0.0000 O   0  0  0  0  0  0  0  0  0  0  0  0
    6.1527   -3.6469    0.0000 C   0  0  0  0  0  0  0  0  0  0  0  0
    4.1499   -1.4133    0.0000 C   0  0  0  0  0  0  0  0  0  0  0  0
    3.1485   -0.2966    0.0000 C   0  0  0  0  0  0  0  0  0  0  0  0
    1.6806   -0.6054    0.0000 C   0  0  0  0  0  0  0  0  0  0  0  0
    1.0677   -1.9745    0.0000 O   0  0  0  0  0  0  0  0  0  0  0  0
   -0.4238   -1.8146    0.0000 C   0  0  0  0  0  0  0  0  0  0  0  0
   -0.7326   -0.3467    0.0000 C   0  0  0  0  0  0  0  0  0  0  0  0
    0.5680    0.4006    0.0000 C   0  0  0  0  0  0  0  0  0  0  0  0
    0.2591    1.8685    0.0000 C   0  0  0  0  0  0  0  0  0  0  0  0
   -1.2323    2.0283    0.0000 O   0  0  0  0  0  0  0  0  0  0  0  0
   -1.8452    0.6593    0.0000 C   0  0  0  0  0  0  0  0  0  0  0  0
   -3.3131    0.3504    0.0000 C   0  0  0  0  0  0  0  0  0  0  0  0
   -4.3145    1.4672    0.0000 C   0  0  0  0  0  0  0  0  0  0  0  0
   -5.7824    1.1584    0.0000 C   0  0  0  0  0  0  0  0  0  0  0  0
   -6.7838    2.2751    0.0000 O   0  0  0  0  0  0  0  0  0  0  0  0
   -6.3173    3.7008    0.0000 C   0  0  0  0  0  0  0  0  0  0  0  0
   -6.2488   -0.2673    0.0000 C   0  0  0  0  0  0  0  0  0  0  0  0
   -7.7167   -0.5761    0.0000 O   0  0  0  0  0  0  0  0  0  0  0  0
   -5.2474   -1.3841    0.0000 C   0  0  0  0  0  0  0  0  0  0  0  0
   -5.7139   -2.8097    0.0000 O   0  0  0  0  0  0  0  0  0  0  0  0
   -4.7125   -3.9265    0.0000 C   0  0  0  0  0  0  0  0  0  0  0  0
   -3.7796   -1.0752    0.0000 C   0  0  0  0  0  0  0  0  0  0  0  0
    3.6150    1.1291    0.0000 C   0  0  0  0  0  0  0  0  0  0  0  0
  1  2  1  0
  2  3  1  0
  3  4  2  0
  4  5  1  0
  4  6  1  0
  6  7  1  0
  7  8  1  0
  6  9  2  0
  9 10  1  0
 11 10  1  6
 11 12  1  0
 12 13  1  0
 14 13  1  1
 14 15  1  0
 15 16  1  1
 16 17  1  0
 17 18  1  0
 18 19  1  6
 19 20  2  0
 20 21  1  0
 21 22  1  0
 22 23  1  0
 21 24  2  0
 24 25  1  0
 24 26  1  0
 26 27  1  0
 27 28  1  0
 26 29  2  0
 10 30  2  0
 30  3  1  0
 15 11  1  0
 29 19  1  0
 18 14  1  0
M  END
>  <identifier>  (420) 
CNP0249408.1

>  <canonical_smiles>  (420) 
COC1=C(O)C(OC)=CC([C@@H]2OC[C@@H]3[C@H]2CO[C@H]3C2=CC(OC)=C(O)C(OC)=C2)=C1

>  <standard_inchi>  (420) 
InChI=1S/C22H26O8/c1-25-15-5-11(6-16(26-2)19(15)23)21-13-9-30-22(14(13)10-29-21)12-7-17(27-3)20(24)18(8-12)28-4/h5-8,13-14,21-24H,9-10H2,1-4H3/t13-,14-,21+,22+/m1/s1

>  <standard_inchi_key>  (420) 
KOWMJRJXZMEZLD-WRMVBYCNSA-N

>  <name>  (420) 
(-)-syringaresinol

>  <iupac_name>  (420) 
4-[(3~{R},3~{a}~{S},6~{R},6~{a}~{S})-6-(4-hydroxy-3,5-dimethoxy-phenyl)-1,3,3~{a},4,6,6~{a}-hexahydrofuro[3,4-c]furan-3-yl]-2,6-dimethoxy-phenol

>  <annotation_level>  (420) 
5

>  <total_atom_count>  (420) 
56

>  <heavy_atom_count>  (420) 
30

>  <molecular_weight>  (420) 
418.44

>  <exact_molecular_weight>  (420) 
418.16277

>  <molecular_formula>  (420) 
C22H26O8

>  <alogp>  (420) 
3.21

>  <topological_polar_surface_area>  (420) 
95.84

>  <rotatable_bond_count>  (420) 
6

>  <hydrogen_bond_acceptors>  (420) 
8

>  <hydrogen_bond_donors>  (420) 
2

>  <hydrogen_bond_acceptors_lipinski>  (420) 
8

>  <hydrogen_bond_donors_lipinski>  (420) 
2

>  <lipinski_rule_of_five_violations>  (420) 
0

>  <aromatic_rings_count>  (420) 
2

>  <qed_drug_likeliness>  (420) 
0.74

>  <formal_charge>  (420) 
0

>  <fractioncsp3>  (420) 
0.46

>  <number_of_minimal_rings>  (420) 
4

>  <van_der_walls_volume>  (420) 
368.48

>  <contains_sugar>  (420) 
False

>  <contains_ring_sugars>  (420) 
False

>  <contains_linear_sugars>  (420) 
False

>  <murcko_framework>  (420) 
O1CC2C(OCC2C1c3ccccc3)c4ccccc4

>  <np_likeness>  (420) 
0.84

>  <chemical_class>  (420) 
Furanoid lignans

>  <chemical_sub_class>  (420) 
Furan lignans

>  <chemical_super_class>  (420) 
Lignans, neolignans and related compounds

>  <direct_parent_classification>  (420) 
Furan lignans

>  <np_classifier_pathway>  (420) 
Shikimates and Phenylpropanoids

>  <np_classifier_superclass>  (420) 
Lignans

>  <np_classifier_class>  (420) 
Furofuranoid lignans

>  <np_classifier_is_glycoside>  (420) 
False

>  <organisms>  (420) 
Aconitum vilmorini|Acronychia laurifolia|Agardhiella subulata|Agathis lanceolata|Agave deserti|Aglaia pyramidata|Albizia Julibrissin|Alstonia undulifolia|Anthemis fuscata|Aphis nerii|Aria dentata|Artemisia minor|Arum maximum|Asclepias subulata|Asteriscus aquaticus|Balsamorhiza macrophylla|Berberis koreana|Betula platyphylla|Candida albicans|Capparis ovata|Cassine papillosa|Celastrus monospermus|Centaurea africana|Chamomilla recutita|Charpentiera obovata|Chromodoris youngbleuthi|Chrysanthemum indicum|Chrysanthemum x morifolium|Cinnamomum subavenium|Cistanche deserticola|Cistanche tubulosa|Citrullus colocynthis|Clathria prolifera|Codonopsis pilosula|Conium maculatum|Conus pulicarius|Cremastra appendiculata|Croton montevidensis|Dalbergia sympathetica|Daphne feddei|Daphne genkwa|Datisca glomerata|Dendrobium candidum|Dendrobium chrysanthum|Dendrobium chrysotoxum|Dendrobium fimbriatum|Dendrobium loddigesii|Dendrobium nobile|Descurainia sophia|Dianthus versicolor|Dioscorea nipponica|Dioscorea olfersiana|Dracaena concinna|Drypetes molunduana Pax and Hoffm|Dysidea villosa|Ecballium elaterium|Echinus microtuberculatus|Eleutherococcus senticosus|Epimedium brevicornu|Epimedium grandiflorum|Epimedium koreanum|Epimedium pubescens|Epimedium sagittatum|Epimedium sempervirens|Epimedium wushanense|Eutrochium purpureum|Fagus fusca|Fuscospora fusca|Garcia parviflora|Gymnosporia trigyna|Hedysarum polybotrys|Helichrysum auriceps|Helichrysum rugulosum|Helicteres angustifolia|Heliotropium hirsutissimum|Hibiscus taiwanensis|Hortonia floribunda|Hosta sieboldiana|Hubertia tomentosa|Hypericum foliosum|Ilyonectria destructans|Inula salsoloides|Inulanthera calva|Iotrochota purpurea|Ipomoea purpurea|Isatis tinctoria|Isodon amethystoides|Jacobaea cannabifolia|Jatropha dioica|Lactarius subpiperatus|Laurencia saitoi|Leitneria floridana|Lepidium apetalum|Ligustrum obtusifolium|Liparis keitaoensis|Lotus ucrainicus|Machilus robusta|Magnolia obovata|Magnolia officinalis|Metridium senile|Morinda citrifolia|Morinda coreia|Mortonia palmeri|Mycale mytilorum|Myelobia smerintha|Myristica cagayanensis|Neolitsea pulchella|Nicotiana raimondii|Notechis scutatus|Ophidiaster ophidianus|Ophiorrhiza kuroiwae|Pajanelia multijuga|Parmelia zollingeri|Passiflora caerulea|Passiflora morifolia|Peperomia duclouxii C. DC.|Pharbitis nil|Phebalium dentatum|Phyllanthus oligospermus|Phyllanthus urinaria|Picris rhagadioloides|Pittosporum illicioides|Plakortis simplex|Pleione bulbocodioides|Pleione yunnanensis|Polygonatum odoratum|Polygonum flaccidum|Pseudocyphellaria hirsuta|Pseudowintera colorata|Pteris japonica|Punica granatum|Quercus imbricaria|Rhaphidophora decursiva|Rhododendron vaccinioides|Sambucus williamsii|Saussurea lappa|Schrebera swietenoides|Scolopia chinensis|Scrophularia koelzii|Selaginella doederleinii|Senecio gilliesi|Sinocalamus affinis|Sinomenium acutum|Solanum aculeatissimum|Solanum andigena|Solanum nigrum|Solanum spirale|Sophora leachiana|Spiracantha cornifolia|Stephania tetrandra|Streptomyces filamentosus|Streptomyces platensis|Strobilanthes formosana|Talipariti tiliaceum|Tephrosia bidwilli|Thielavia terricola|Tripterygium wilfordii Hook F.(TwHF)|Trollius europaeus|Tylophora tanakae|Vernonia lilacina|Vigna angularis|Viviparus japonicus|Xanthium strumarium|Xanthoria parietina|Zanthoxylum avicennae|Zanthoxylum simulans

>  <collections>  (420) 
Australian natural products|BIOFACQUIM|CMAUP (cCollective molecular activities of useful plants)|ChEBI NPs|KNApSaCK|Latin America dataset|NPASS|NPEdia|Phyto4Health|Super Natural II|TIPdb (database of Taiwan indigenous plants)|VietHerb|ZINC NP

>  <dois>  (420) 
10.1016/j.bse.2014.04.016|10.1021/np100440p|10.1021/np400533h

>  <synonyms>  (420) 
6216-81-5|(-)-Lirioresinol B|Syringaresinol - 93%|Syringaresinol| (-)-|QD6NNG8CM5|DL-Syringaresinol|UNII-QD6NNG8CM5|CHEBI:49212|4|4'-((1R|3aS|4R|6aS)-Tetrahydro-1H|3H-furo(3|4-C)furan-1|4-diyl)bis(2|6-dimethoxyphenol)|4-(3R|3aS|6R|6aS)-6-(4-hydroxy-3|5-dimethoxyphenyl)-1|3|3a|4|6|6a-hexahydrofuro3|4-cfuran-3-yl-2|6-dimethoxyphenol|(7beta|7'beta|8beta|8'beta)-3|3'|5|5'-tetramethoxy-7|9':7'|9-diepoxylignane-4|4'-diol|Phenol| 4|4'-(tetrahydro-1H|3H-furo(3|4-C)furan-1|4-diyl)bis(2|6-dimethoxy-| (1R-(1alpha|3aalpha|4alpha|6aalpha))-|Lirioresinol b|minus Syringaresinol|()-Syringaresinol;|CHEMBL402653|SCHEMBL16562875|KOWMJRJXZMEZLD-WRMVBYCNSA-N|DTXSID901316029|AKOS030231411|MS-27314|XS164035|HY-126066|CS-0090357|Q27121535|PHENOL| 4|4'-(TETRAHYDRO-1H|3H-FURO(3|4-C)FURAN-1|4-DIYL)BIS(2|6-DIMETHOXY-| (1R-(1.ALPHA.|3A.ALPHA.|4.ALPHA.|6A.ALPHA.))-|#XL EVAL ERROR#|lirioresinol B|(-)-syringaresinol

>  <cas>  (420) 
6216-81-5

$$$$

     RDKit          2D

 96102  0  0  0  0  0  0  0  0999 V2000
    4.4102   14.1715    0.0000 C   0  0  0  0  0  0  0  0  0  0  0  0
    4.4501   12.6721    0.0000 C   0  0  0  0  0  0  0  0  0  0  0  0
    3.1715   11.8878    0.0000 C   0  0  0  0  0  0  0  0  0  0  0  0
    3.2114   10.3883    0.0000 C   0  0  0  0  0  0  0  0  0  0  0  0
    1.9328    9.6040    0.0000 C   0  0  0  0  0  0  0  0  0  0  0  0
    1.9727    8.1045    0.0000 C   0  0  0  0  0  0  0  0  0  0  0  0
    0.6941    7.3202    0.0000 C   0  0  0  0  0  0  0  0  0  0  0  0
    0.7341    5.8207    0.0000 C   0  0  0  0  0  0  0  0  0  0  0  0
   -0.5445    5.0364    0.0000 C   0  0  0  0  0  0  0  0  0  0  0  0
   -0.5046    3.5369    0.0000 C   0  0  0  0  0  0  0  0  0  0  0  0
    0.8140    2.8218    0.0000 O   0  0  0  0  0  0  0  0  0  0  0  0
   -1.7832    2.7526    0.0000 O   0  0  0  0  0  0  0  0  0  0  0  0
   -1.7433    1.2531    0.0000 C   0  0  0  0  0  0  0  0  0  0  0  0
   -0.4247    0.5380    0.0000 C   0  0  0  0  0  0  0  0  0  0  0  0
    0.8539    1.3223    0.0000 O   0  0  0  0  0  0  0  0  0  0  0  0
    2.1724    0.6072    0.0000 C   0  0  0  0  0  0  0  0  0  0  0  0
    3.4510    1.3915    0.0000 C   0  0  0  0  0  0  0  0  0  0  0  0
    3.4111    2.8910    0.0000 O   0  0  0  0  0  0  0  0  0  0  0  0
    4.7696    0.6763    0.0000 C   0  0  0  0  0  0  0  0  0  0  0  0
    5.2449    2.0990    0.0000 O   0  0  0  0  0  0  0  0  0  0  0  0
    6.1782    3.2734    0.0000 C   0  0  0  0  0  0  0  0  0  0  0  0
    5.1837    4.3964    0.0000 O   0  0  0  0  0  0  0  0  0  0  0  0
    7.4568    4.0577    0.0000 C   0  0  0  0  0  0  0  0  0  0  0  0
    8.9265    4.3574    0.0000 C   0  0  0  0  0  0  0  0  0  0  0  0
   10.4101    4.1363    0.0000 C   0  0  0  0  0  0  0  0  0  0  0  0
   11.7287    3.4212    0.0000 C   0  0  0  0  0  0  0  0  0  0  0  0
   12.7231    2.2982    0.0000 C   0  0  0  0  0  0  0  0  0  0  0  0
   13.2735    0.9028    0.0000 C   0  0  0  0  0  0  0  0  0  0  0  0
   13.3134   -0.5966    0.0000 C   0  0  0  0  0  0  0  0  0  0  0  0
   12.8381   -2.0193    0.0000 C   0  0  0  0  0  0  0  0  0  0  0  0
   11.9049   -3.1937    0.0000 C   0  0  0  0  0  0  0  0  0  0  0  0
   10.6263   -3.9780    0.0000 C   0  0  0  0  0  0  0  0  0  0  0  0
   11.1766   -5.3734    0.0000 C   0  0  0  0  0  0  0  0  0  0  0  0
   12.6603   -5.5944    0.0000 C   0  0  0  0  0  0  0  0  0  0  0  0
   13.2106   -6.9898    0.0000 C   0  0  0  0  0  0  0  0  0  0  0  0
   14.6943   -7.2108    0.0000 C   0  0  0  0  0  0  0  0  0  0  0  0
   15.2446   -8.6062    0.0000 C   0  0  0  0  0  0  0  0  0  0  0  0
    9.1565   -4.2777    0.0000 O   0  0  0  0  0  0  0  0  0  0  0  0
    7.6729   -4.0566    0.0000 C   0  0  0  0  0  0  0  0  0  0  0  0
    7.7128   -5.5561    0.0000 O   0  0  0  0  0  0  0  0  0  0  0  0
    6.4342   -6.3404    0.0000 C   0  0  0  0  0  0  0  0  0  0  0  0
    6.4742   -7.8399    0.0000 C   0  0  0  0  0  0  0  0  0  0  0  0
    5.1157   -5.6253    0.0000 C   0  0  0  0  0  0  0  0  0  0  0  0
    3.8371   -6.4096    0.0000 O   0  0  0  0  0  0  0  0  0  0  0  0
    5.0757   -4.1258    0.0000 C   0  0  0  0  0  0  0  0  0  0  0  0
    3.7572   -3.4107    0.0000 O   0  0  0  0  0  0  0  0  0  0  0  0
    6.3543   -3.3415    0.0000 C   0  0  0  0  0  0  0  0  0  0  0  0
    5.3599   -2.2185    0.0000 O   0  0  0  0  0  0  0  0  0  0  0  0
    4.8095   -0.8231    0.0000 C   0  0  0  0  0  0  0  0  0  0  0  0
    3.5309   -1.6075    0.0000 O   0  0  0  0  0  0  0  0  0  0  0  0
    2.2124   -0.8923    0.0000 C   0  0  0  0  0  0  0  0  0  0  0  0
    0.9338   -1.6766    0.0000 C   0  0  0  0  0  0  0  0  0  0  0  0
   -0.3848   -0.9615    0.0000 O   0  0  0  0  0  0  0  0  0  0  0  0
   -1.6634   -1.7458    0.0000 C   0  0  0  0  0  0  0  0  0  0  0  0
   -1.6235   -3.2453    0.0000 C   0  0  0  0  0  0  0  0  0  0  0  0
   -2.9819   -1.0307    0.0000 C   0  0  0  0  0  0  0  0  0  0  0  0
   -4.2605   -1.8150    0.0000 O   0  0  0  0  0  0  0  0  0  0  0  0
   -5.5791   -1.0998    0.0000 C   0  0  0  0  0  0  0  0  0  0  0  0
   -5.6190    0.3996    0.0000 O   0  0  0  0  0  0  0  0  0  0  0  0
   -6.9376    1.1148    0.0000 C   0  0  0  0  0  0  0  0  0  0  0  0
   -6.9775    2.6143    0.0000 C   0  0  0  0  0  0  0  0  0  0  0  0
   -8.2162    0.3305    0.0000 C   0  0  0  0  0  0  0  0  0  0  0  0
   -9.5347    1.0456    0.0000 O   0  0  0  0  0  0  0  0  0  0  0  0
  -10.8133    0.2613    0.0000 C   0  0  0  0  0  0  0  0  0  0  0  0
  -10.7734   -1.2382    0.0000 O   0  0  0  0  0  0  0  0  0  0  0  0
  -12.1319    0.9764    0.0000 C   0  0  0  0  0  0  0  0  0  0  0  0
  -13.4105    0.1921    0.0000 C   0  0  0  0  0  0  0  0  0  0  0  0
  -12.1718    2.4759    0.0000 C   0  0  0  0  0  0  0  0  0  0  0  0
  -13.4904    3.1911    0.0000 C   0  0  0  0  0  0  0  0  0  0  0  0
   -8.1762   -1.1690    0.0000 C   0  0  0  0  0  0  0  0  0  0  0  0
   -9.4549   -1.9533    0.0000 O   0  0  0  0  0  0  0  0  0  0  0  0
   -6.8577   -1.8842    0.0000 C   0  0  0  0  0  0  0  0  0  0  0  0
   -6.8178   -3.3836    0.0000 O   0  0  0  0  0  0  0  0  0  0  0  0
   -8.0964   -4.1679    0.0000 C   0  0  0  0  0  0  0  0  0  0  0  0
   -9.4149   -3.4528    0.0000 O   0  0  0  0  0  0  0  0  0  0  0  0
   -8.0564   -5.6674    0.0000 C   0  0  0  0  0  0  0  0  0  0  0  0
   -9.3350   -6.4517    0.0000 C   0  0  0  0  0  0  0  0  0  0  0  0
   -9.2951   -7.9512    0.0000 C   0  0  0  0  0  0  0  0  0  0  0  0
  -10.5737   -8.7355    0.0000 C   0  0  0  0  0  0  0  0  0  0  0  0
  -10.5338  -10.2350    0.0000 C   0  0  0  0  0  0  0  0  0  0  0  0
   -9.2152  -10.9501    0.0000 C   0  0  0  0  0  0  0  0  0  0  0  0
   -7.9366  -10.1658    0.0000 C   0  0  0  0  0  0  0  0  0  0  0  0
   -7.9766   -8.6663    0.0000 C   0  0  0  0  0  0  0  0  0  0  0  0
   -3.0219    0.4688    0.0000 C   0  0  0  0  0  0  0  0  0  0  0  0
   -4.3404    1.1840    0.0000 O   0  0  0  0  0  0  0  0  0  0  0  0
   -4.3804    2.6834    0.0000 C   0  0  0  0  0  0  0  0  0  0  0  0
   -5.6989    3.3986    0.0000 O   0  0  0  0  0  0  0  0  0  0  0  0
   -5.7388    4.8980    0.0000 C   0  0  0  0  0  0  0  0  0  0  0  0
   -7.0574    5.6132    0.0000 C   0  0  0  0  0  0  0  0  0  0  0  0
   -8.3360    4.8289    0.0000 O   0  0  0  0  0  0  0  0  0  0  0  0
   -4.4602    5.6824    0.0000 C   0  0  0  0  0  0  0  0  0  0  0  0
   -4.5002    7.1818    0.0000 O   0  0  0  0  0  0  0  0  0  0  0  0
   -3.1417    4.9672    0.0000 C   0  0  0  0  0  0  0  0  0  0  0  0
   -1.8631    5.7515    0.0000 O   0  0  0  0  0  0  0  0  0  0  0  0
   -3.1017    3.4677    0.0000 C   0  0  0  0  0  0  0  0  0  0  0  0
   -2.3299    3.2685    0.0000 O   0  0  0  0  0  0  0  0  0  0  0  0
  1  2  1  0
  2  3  1  0
  3  4  1  0
  4  5  1  0
  5  6  1  0
  6  7  1  0
  7  8  1  0
  8  9  1  0
  9 10  1  0
 10 11  2  0
 10 12  1  0
 13 12  1  1
 13 14  1  0
 14 15  1  6
 16 15  1  6
 16 17  1  0
 17 18  1  1
 17 19  1  0
 19 20  1  1
 20 21  1  0
 21 22  2  0
 21 23  1  0
 23 24  1  0
 24 25  1  0
 25 26  1  0
 26 27  1  0
 27 28  1  0
 28 29  1  0
 29 30  1  0
 30 31  1  0
 31 32  1  0
 32 33  1  6
 33 34  1  0
 34 35  1  0
 35 36  1  0
 36 37  1  0
 32 38  1  0
 39 38  1  6
 39 40  1  0
 40 41  1  0
 41 42  1  6
 41 43  1  0
 43 44  1  6
 43 45  1  0
 45 46  1  6
 45 47  1  0
 47 48  1  1
 49 48  1  6
 49 50  1  0
 50 51  1  0
 51 52  1  1
 14 53  1  0
 53 54  1  0
 54 55  1  1
 54 56  1  0
 56 57  1  6
 58 57  1  1
 58 59  1  0
 59 60  1  0
 60 61  1  6
 60 62  1  0
 62 63  1  1
 63 64  1  0
 64 65  2  0
 64 66  1  0
 66 67  1  1
 66 68  1  0
 68 69  1  0
 62 70  1  0
 70 71  1  6
 70 72  1  0
 72 73  1  6
 73 74  1  0
 74 75  2  0
 74 76  1  0
 76 77  2  0
 77 78  1  0
 78 79  2  0
 79 80  1  0
 80 81  2  0
 81 82  1  0
 82 83  2  0
 56 84  1  0
 84 85  1  1
 86 85  1  6
 86 87  1  0
 87 88  1  0
 88 89  1  6
 89 90  1  0
 88 91  1  0
 91 92  1  1
 91 93  1  0
 93 94  1  6
 93 95  1  0
 95 96  1  1
 84 13  1  0
 95 86  1  0
 51 16  1  0
 72 58  1  0
 83 78  1  0
 49 19  1  0
 47 39  1  0
M  END
>  <identifier>  (421) 
CNP0092304.1

>  <canonical_smiles>  (421) 
CCCCCCCCCC(=O)O[C@H]1[C@H](O[C@@H]2[C@@H](O)[C@H]3OC(=O)CCCCCCCCC[C@H](CCCCC)O[C@@H]4O[C@H](C)[C@H](O)[C@H](O)[C@H]4O[C@@H]3O[C@H]2C)O[C@@H](C)[C@H](O[C@@H]2O[C@@H](C)[C@H](OC(=O)[C@@H](C)CC)[C@@H](O)[C@H]2OC(=O)/C=C/C2=CC=CC=C2)[C@H]1O[C@@H]1O[C@H](CO)[C@@H](O)[C@H](O)[C@H]1O

>  <standard_inchi>  (421) 
InChI=1S/C70H112O26/c1-9-12-14-15-17-21-29-35-48(73)91-64-63(96-66-54(79)52(77)51(76)46(38-71)88-66)59(94-68-61(90-49(74)37-36-44-30-25-23-26-31-44)55(80)57(41(6)84-68)92-65(82)39(4)11-3)43(8)86-70(64)93-58-42(7)85-69-62(56(58)81)89-47(72)34-28-22-19-16-18-20-27-33-45(32-24-13-10-2)87-67-60(95-69)53(78)50(75)40(5)83-67/h23,25-26,30-31,36-37,39-43,45-46,50-64,66-71,75-81H,9-22,24,27-29,32-35,38H2,1-8H3/b37-36+/t39-,40+,41-,42-,43-,45-,46+,50-,51+,52-,53-,54+,55+,56+,57-,58-,59-,60+,61+,62+,63+,64+,66-,67-,68-,69-,70-/m0/s1

>  <standard_inchi_key>  (421) 
MFVVQPJPHUAJBA-KXXSYOAGSA-N

>  <name>  (421) 
Purginoside I

>  <iupac_name>  (421) 
[(2~{S},3~{R},4~{R},5~{S},6~{S})-5-[(2~{S},3~{R},4~{R},5~{R},6~{S})-4-hydroxy-6-methyl-5-[(2~{S})-2-methylbutanoyl]oxy-3-[(~{E})-3-phenylprop-2-enoyl]oxy-tetrahydropyran-2-yl]oxy-6-methyl-2-[[(1~{R},3~{S},5~{S},6~{R},7~{R},8~{R},20~{S},22~{R},24~{R},25~{R},26~{S})-7,25,26-trihydroxy-5,24-dimethyl-10-oxo-20-pentyl-2,4,9,21,23-pentaoxatricyclo[20.4.0.0^{3,8}]hexacosan-6-yl]oxy]-4-[(2~{S},3~{R},4~{S},5~{S},6~{R})-3,4,5-trihydroxy-6-(hydroxymethyl)tetrahydropyran-2-yl]oxy-tetrahydropyran-3-yl] decanoate

>  <annotation_level>  (421) 
5

>  <total_atom_count>  (421) 
208

>  <heavy_atom_count>  (421) 
96

>  <molecular_weight>  (421) 
1369.64

>  <exact_molecular_weight>  (421) 
1368.74418

>  <molecular_formula>  (421) 
C70H112O26

>  <alogp>  (421) 
5.79

>  <topological_polar_surface_area>  (421) 
359.34

>  <rotatable_bond_count>  (421) 
26

>  <hydrogen_bond_acceptors>  (421) 
26

>  <hydrogen_bond_donors>  (421) 
8

>  <hydrogen_bond_acceptors_lipinski>  (421) 
26

>  <hydrogen_bond_donors_lipinski>  (421) 
8

>  <lipinski_rule_of_five_violations>  (421) 
4

>  <aromatic_rings_count>  (421) 
1

>  <qed_drug_likeliness>  (421) 
0.02

>  <formal_charge>  (421) 
0

>  <fractioncsp3>  (421) 
0.83

>  <number_of_minimal_rings>  (421) 
7

>  <van_der_walls_volume>  (421) 
nan

>  <contains_sugar>  (421) 
True

>  <contains_ring_sugars>  (421) 
True

>  <contains_linear_sugars>  (421) 
False

>  <murcko_framework>  (421) 
O1CCCCC1OC2CC(OCC2OC3OCCCC3OCC=Cc4ccccc4)OC5COC6OC7CCCOC7OCCCCCCCCCCCOC6C5

>  <np_likeness>  (421) 
1.38

>  <chemical_class>  (421) 
Fatty Acyls

>  <chemical_sub_class>  (421) 
Fatty acyl glycosides

>  <chemical_super_class>  (421) 
Lipids and lipid-like molecules

>  <direct_parent_classification>  (421) 
Fatty acyl glycosides of mono- and disaccharides

>  <np_classifier_pathway>  (421) 
Fatty acids

>  <np_classifier_superclass>  (421) 
Fatty acyls

>  <np_classifier_class>  (421) 
Resin glycosides

>  <np_classifier_is_glycoside>  (421) 
True

>  <organisms>  (421) 
Ipomea purga|Ipomoea purga

>  <collections>  (421) 
BIOFACQUIM|ChEBI NPs|Latin America dataset|NPASS

>  <dois>  (421) 
10.1021/np200080k

>  <synonyms>  (421) 
CHEBI:67579|CHEMBL2336640|Q27136047|Purginoside I

>  <cas>  (421) 
nan

$$$$

     RDKit          2D

 97103  0  0  0  0  0  0  0  0999 V2000
    5.2680   13.9315    0.0000 C   0  0  0  0  0  0  0  0  0  0  0  0
    5.2713   12.4315    0.0000 C   0  0  0  0  0  0  0  0  0  0  0  0
    3.9739   11.6786    0.0000 C   0  0  0  0  0  0  0  0  0  0  0  0
    3.9773   10.1786    0.0000 C   0  0  0  0  0  0  0  0  0  0  0  0
    2.6799    9.4257    0.0000 C   0  0  0  0  0  0  0  0  0  0  0  0
    2.6833    7.9257    0.0000 C   0  0  0  0  0  0  0  0  0  0  0  0
    1.3859    7.1728    0.0000 C   0  0  0  0  0  0  0  0  0  0  0  0
    1.3893    5.6728    0.0000 C   0  0  0  0  0  0  0  0  0  0  0  0
    0.0919    4.9199    0.0000 C   0  0  0  0  0  0  0  0  0  0  0  0
    0.0953    3.4200    0.0000 C   0  0  0  0  0  0  0  0  0  0  0  0
    1.3960    2.6729    0.0000 O   0  0  0  0  0  0  0  0  0  0  0  0
   -1.2021    2.6671    0.0000 O   0  0  0  0  0  0  0  0  0  0  0  0
   -1.1988    1.1671    0.0000 C   0  0  0  0  0  0  0  0  0  0  0  0
    0.1020    0.4200    0.0000 C   0  0  0  0  0  0  0  0  0  0  0  0
    1.3993    1.1729    0.0000 O   0  0  0  0  0  0  0  0  0  0  0  0
    2.7000    0.4258    0.0000 C   0  0  0  0  0  0  0  0  0  0  0  0
    3.9974    1.1787    0.0000 C   0  0  0  0  0  0  0  0  0  0  0  0
    3.9940    2.6787    0.0000 O   0  0  0  0  0  0  0  0  0  0  0  0
    5.2981    0.4316    0.0000 C   0  0  0  0  0  0  0  0  0  0  0  0
    5.8080    1.8422    0.0000 O   0  0  0  0  0  0  0  0  0  0  0  0
    6.7696    2.9935    0.0000 C   0  0  0  0  0  0  0  0  0  0  0  0
    5.8028    4.1404    0.0000 O   0  0  0  0  0  0  0  0  0  0  0  0
    8.0669    3.7464    0.0000 C   0  0  0  0  0  0  0  0  0  0  0  0
    9.5436    4.0101    0.0000 C   0  0  0  0  0  0  0  0  0  0  0  0
   11.0214    3.7529    0.0000 C   0  0  0  0  0  0  0  0  0  0  0  0
   12.3221    3.0059    0.0000 C   0  0  0  0  0  0  0  0  0  0  0  0
   13.2888    1.8589    0.0000 C   0  0  0  0  0  0  0  0  0  0  0  0
   13.8050    0.4506    0.0000 C   0  0  0  0  0  0  0  0  0  0  0  0
   13.8083   -1.0494    0.0000 C   0  0  0  0  0  0  0  0  0  0  0  0
   13.2985   -2.4601    0.0000 C   0  0  0  0  0  0  0  0  0  0  0  0
   12.3368   -3.6113    0.0000 C   0  0  0  0  0  0  0  0  0  0  0  0
   11.0395   -4.3642    0.0000 C   0  0  0  0  0  0  0  0  0  0  0  0
   11.5557   -5.7726    0.0000 C   0  0  0  0  0  0  0  0  0  0  0  0
   13.0334   -6.0298    0.0000 C   0  0  0  0  0  0  0  0  0  0  0  0
   13.5496   -7.4382    0.0000 C   0  0  0  0  0  0  0  0  0  0  0  0
   15.0274   -7.6954    0.0000 C   0  0  0  0  0  0  0  0  0  0  0  0
   15.5436   -9.1038    0.0000 C   0  0  0  0  0  0  0  0  0  0  0  0
    9.5629   -4.6280    0.0000 O   0  0  0  0  0  0  0  0  0  0  0  0
    8.0851   -4.3708    0.0000 C   0  0  0  0  0  0  0  0  0  0  0  0
    8.0884   -5.8708    0.0000 O   0  0  0  0  0  0  0  0  0  0  0  0
    6.7911   -6.6237    0.0000 C   0  0  0  0  0  0  0  0  0  0  0  0
    6.7944   -8.1237    0.0000 C   0  0  0  0  0  0  0  0  0  0  0  0
    5.4903   -5.8766    0.0000 C   0  0  0  0  0  0  0  0  0  0  0  0
    4.1930   -6.6295    0.0000 O   0  0  0  0  0  0  0  0  0  0  0  0
    5.4870   -4.3766    0.0000 C   0  0  0  0  0  0  0  0  0  0  0  0
    4.1863   -3.6295    0.0000 O   0  0  0  0  0  0  0  0  0  0  0  0
    6.7844   -3.6237    0.0000 C   0  0  0  0  0  0  0  0  0  0  0  0
    5.8176   -2.4768    0.0000 O   0  0  0  0  0  0  0  0  0  0  0  0
    5.3014   -1.0684    0.0000 C   0  0  0  0  0  0  0  0  0  0  0  0
    4.0041   -1.8213    0.0000 O   0  0  0  0  0  0  0  0  0  0  0  0
    2.7034   -1.0742    0.0000 C   0  0  0  0  0  0  0  0  0  0  0  0
    1.4060   -1.8271    0.0000 C   0  0  0  0  0  0  0  0  0  0  0  0
    0.1053   -1.0800    0.0000 O   0  0  0  0  0  0  0  0  0  0  0  0
   -1.1921   -1.8329    0.0000 C   0  0  0  0  0  0  0  0  0  0  0  0
   -1.1887   -3.3329    0.0000 C   0  0  0  0  0  0  0  0  0  0  0  0
   -2.4928   -1.0858    0.0000 C   0  0  0  0  0  0  0  0  0  0  0  0
   -3.7901   -1.8387    0.0000 O   0  0  0  0  0  0  0  0  0  0  0  0
   -5.0908   -1.0916    0.0000 C   0  0  0  0  0  0  0  0  0  0  0  0
   -5.0942    0.4084    0.0000 O   0  0  0  0  0  0  0  0  0  0  0  0
   -6.3949    1.1555    0.0000 C   0  0  0  0  0  0  0  0  0  0  0  0
   -6.3982    2.6555    0.0000 C   0  0  0  0  0  0  0  0  0  0  0  0
   -7.6923    0.4026    0.0000 C   0  0  0  0  0  0  0  0  0  0  0  0
   -8.9930    1.1497    0.0000 O   0  0  0  0  0  0  0  0  0  0  0  0
  -10.2903    0.3968    0.0000 C   0  0  0  0  0  0  0  0  0  0  0  0
  -10.2870   -1.1032    0.0000 O   0  0  0  0  0  0  0  0  0  0  0  0
  -11.5910    1.1439    0.0000 C   0  0  0  0  0  0  0  0  0  0  0  0
  -12.8884    0.3910    0.0000 C   0  0  0  0  0  0  0  0  0  0  0  0
  -14.1891    1.1381    0.0000 C   0  0  0  0  0  0  0  0  0  0  0  0
  -15.4865    0.3852    0.0000 C   0  0  0  0  0  0  0  0  0  0  0  0
  -16.7872    1.1323    0.0000 C   0  0  0  0  0  0  0  0  0  0  0  0
   -7.6889   -1.0974    0.0000 C   0  0  0  0  0  0  0  0  0  0  0  0
   -8.9863   -1.8503    0.0000 O   0  0  0  0  0  0  0  0  0  0  0  0
   -8.9829   -3.3503    0.0000 C   0  0  0  0  0  0  0  0  0  0  0  0
   -7.6822   -4.0974    0.0000 O   0  0  0  0  0  0  0  0  0  0  0  0
  -10.2803   -4.1032    0.0000 C   0  0  0  0  0  0  0  0  0  0  0  0
  -10.2769   -5.6032    0.0000 C   0  0  0  0  0  0  0  0  0  0  0  0
  -11.5743   -6.3561    0.0000 C   0  0  0  0  0  0  0  0  0  0  0  0
  -12.8750   -5.6090    0.0000 C   0  0  0  0  0  0  0  0  0  0  0  0
  -14.1724   -6.3619    0.0000 C   0  0  0  0  0  0  0  0  0  0  0  0
  -14.1690   -7.8619    0.0000 C   0  0  0  0  0  0  0  0  0  0  0  0
  -12.8683   -8.6090    0.0000 C   0  0  0  0  0  0  0  0  0  0  0  0
  -11.5709   -7.8561    0.0000 C   0  0  0  0  0  0  0  0  0  0  0  0
   -6.3882   -1.8445    0.0000 C   0  0  0  0  0  0  0  0  0  0  0  0
   -6.3849   -3.3445    0.0000 O   0  0  0  0  0  0  0  0  0  0  0  0
   -2.4961    0.4142    0.0000 C   0  0  0  0  0  0  0  0  0  0  0  0
   -3.7968    1.1613    0.0000 O   0  0  0  0  0  0  0  0  0  0  0  0
   -3.8002    2.6613    0.0000 C   0  0  0  0  0  0  0  0  0  0  0  0
   -5.1009    3.4084    0.0000 O   0  0  0  0  0  0  0  0  0  0  0  0
   -5.1042    4.9083    0.0000 C   0  0  0  0  0  0  0  0  0  0  0  0
   -6.4049    5.6554    0.0000 C   0  0  0  0  0  0  0  0  0  0  0  0
   -7.7023    4.9025    0.0000 O   0  0  0  0  0  0  0  0  0  0  0  0
   -3.8069    5.6612    0.0000 C   0  0  0  0  0  0  0  0  0  0  0  0
   -3.8102    7.1612    0.0000 O   0  0  0  0  0  0  0  0  0  0  0  0
   -2.5062    4.9141    0.0000 C   0  0  0  0  0  0  0  0  0  0  0  0
   -1.2088    5.6670    0.0000 O   0  0  0  0  0  0  0  0  0  0  0  0
   -2.5028    3.4142    0.0000 C   0  0  0  0  0  0  0  0  0  0  0  0
   -1.7360    3.1962    0.0000 O   0  0  0  0  0  0  0  0  0  0  0  0
  1  2  1  0
  2  3  1  0
  3  4  1  0
  4  5  1  0
  5  6  1  0
  6  7  1  0
  7  8  1  0
  8  9  1  0
  9 10  1  0
 10 11  2  0
 10 12  1  0
 13 12  1  1
 13 14  1  0
 14 15  1  6
 16 15  1  6
 16 17  1  0
 17 18  1  1
 17 19  1  0
 19 20  1  1
 20 21  1  0
 21 22  2  0
 21 23  1  0
 23 24  1  0
 24 25  1  0
 25 26  1  0
 26 27  1  0
 27 28  1  0
 28 29  1  0
 29 30  1  0
 30 31  1  0
 31 32  1  0
 32 33  1  6
 33 34  1  0
 34 35  1  0
 35 36  1  0
 36 37  1  0
 32 38  1  0
 39 38  1  6
 39 40  1  0
 40 41  1  0
 41 42  1  6
 41 43  1  0
 43 44  1  6
 43 45  1  0
 45 46  1  6
 45 47  1  0
 47 48  1  1
 49 48  1  6
 49 50  1  0
 50 51  1  0
 51 52  1  1
 14 53  1  0
 53 54  1  0
 54 55  1  1
 54 56  1  0
 56 57  1  6
 58 57  1  1
 58 59  1  0
 59 60  1  0
 60 61  1  6
 60 62  1  0
 62 63  1  1
 63 64  1  0
 64 65  2  0
 64 66  1  0
 66 67  1  0
 67 68  1  0
 68 69  1  0
 69 70  1  0
 62 71  1  0
 71 72  1  6
 72 73  1  0
 73 74  2  0
 73 75  1  0
 75 76  2  0
 76 77  1  0
 77 78  2  0
 78 79  1  0
 79 80  2  0
 80 81  1  0
 81 82  2  0
 71 83  1  0
 83 84  1  6
 56 85  1  0
 85 86  1  1
 87 86  1  6
 87 88  1  0
 88 89  1  0
 89 90  1  6
 90 91  1  0
 89 92  1  0
 92 93  1  1
 92 94  1  0
 94 95  1  6
 94 96  1  0
 96 97  1  1
 85 13  1  0
 96 87  1  0
 51 16  1  0
 83 58  1  0
 49 19  1  0
 82 77  1  0
 47 39  1  0
M  END
>  <identifier>  (422) 
CNP0085396.1

>  <canonical_smiles>  (422) 
CCCCCCCCCC(=O)O[C@H]1[C@H](O[C@@H]2[C@@H](O)[C@H]3OC(=O)CCCCCCCCC[C@H](CCCCC)O[C@@H]4O[C@H](C)[C@H](O)[C@H](O)[C@H]4O[C@@H]3O[C@H]2C)O[C@@H](C)[C@H](O[C@@H]2O[C@@H](C)[C@H](OC(=O)CCCCC)[C@@H](OC(=O)/C=C/C3=CC=CC=C3)[C@H]2O)[C@H]1O[C@@H]1O[C@H](CO)[C@@H](O)[C@H](O)[C@H]1O

>  <standard_inchi>  (422) 
InChI=1S/C71H114O26/c1-8-11-14-15-17-21-30-37-50(75)93-66-65(97-67-56(81)54(79)53(78)47(40-72)89-67)61(95-68-58(83)62(91-51(76)39-38-45-31-26-23-27-32-45)60(43(6)85-68)90-48(73)35-25-13-10-3)44(7)87-71(66)94-59-42(5)86-70-64(57(59)82)92-49(74)36-29-22-19-16-18-20-28-34-46(33-24-12-9-2)88-69-63(96-70)55(80)52(77)41(4)84-69/h23,26-27,31-32,38-39,41-44,46-47,52-72,77-83H,8-22,24-25,28-30,33-37,40H2,1-7H3/b39-38+/t41-,42+,43+,44+,46+,47-,52+,53-,54+,55+,56-,57-,58-,59+,60+,61+,62+,63-,64-,65-,66-,67+,68+,69+,70+,71+/m1/s1

>  <standard_inchi_key>  (422) 
MGJQNRHGDBVBKJ-KJRQEDIZSA-N

>  <name>  (422) 
Purginoside II

>  <iupac_name>  (422) 
[(2~{S},3~{R},4~{R},5~{S},6~{S})-5-[(2~{S},3~{R},4~{S},5~{S},6~{S})-5-hexanoyloxy-3-hydroxy-6-methyl-4-[(~{E})-3-phenylprop-2-enoyl]oxy-tetrahydropyran-2-yl]oxy-6-methyl-2-[[(1~{R},3~{S},5~{S},6~{R},7~{R},8~{R},20~{S},22~{R},24~{R},25~{R},26~{S})-7,25,26-trihydroxy-5,24-dimethyl-10-oxo-20-pentyl-2,4,9,21,23-pentaoxatricyclo[20.4.0.0^{3,8}]hexacosan-6-yl]oxy]-4-[(2~{S},3~{R},4~{S},5~{S},6~{R})-3,4,5-trihydroxy-6-(hydroxymethyl)tetrahydropyran-2-yl]oxy-tetrahydropyran-3-yl] decanoate

>  <annotation_level>  (422) 
5

>  <total_atom_count>  (422) 
211

>  <heavy_atom_count>  (422) 
97

>  <molecular_weight>  (422) 
1383.67

>  <exact_molecular_weight>  (422) 
1382.75983

>  <molecular_formula>  (422) 
C71H114O26

>  <alogp>  (422) 
6.32

>  <topological_polar_surface_area>  (422) 
359.34

>  <rotatable_bond_count>  (422) 
28

>  <hydrogen_bond_acceptors>  (422) 
26

>  <hydrogen_bond_donors>  (422) 
8

>  <hydrogen_bond_acceptors_lipinski>  (422) 
26

>  <hydrogen_bond_donors_lipinski>  (422) 
8

>  <lipinski_rule_of_five_violations>  (422) 
4

>  <aromatic_rings_count>  (422) 
1

>  <qed_drug_likeliness>  (422) 
0.02

>  <formal_charge>  (422) 
0

>  <fractioncsp3>  (422) 
0.83

>  <number_of_minimal_rings>  (422) 
7

>  <van_der_walls_volume>  (422) 
nan

>  <contains_sugar>  (422) 
True

>  <contains_ring_sugars>  (422) 
True

>  <contains_linear_sugars>  (422) 
False

>  <murcko_framework>  (422) 
O1CCCCC1OC2CC(OCC2OC3OCCC(OCC=Cc4ccccc4)C3)OC5COC6OC7CCCOC7OCCCCCCCCCCCOC6C5

>  <np_likeness>  (422) 
1.25

>  <chemical_class>  (422) 
Fatty Acyls

>  <chemical_sub_class>  (422) 
Fatty acyl glycosides

>  <chemical_super_class>  (422) 
Lipids and lipid-like molecules

>  <direct_parent_classification>  (422) 
Fatty acyl glycosides of mono- and disaccharides

>  <np_classifier_pathway>  (422) 
Fatty acids

>  <np_classifier_superclass>  (422) 
Fatty acyls

>  <np_classifier_class>  (422) 
Resin glycosides

>  <np_classifier_is_glycoside>  (422) 
True

>  <organisms>  (422) 
Ipomea purga|Ipomoea purga

>  <collections>  (422) 
BIOFACQUIM|ChEBI NPs|Latin America dataset|NPASS

>  <dois>  (422) 
10.1021/np200080k|10.1021/np300739y

>  <synonyms>  (422) 
CHEBI:67580|CHEMBL2336641|Q27136048|Purginoside II

>  <cas>  (422) 
nan

$$$$

     RDKit          2D

196208  0  0  0  0  0  0  0  0999 V2000
  -32.3939    8.4576    0.0000 C   0  0  0  0  0  0  0  0  0  0  0  0
  -31.4469    7.2944    0.0000 C   0  0  0  0  0  0  0  0  0  0  0  0
  -29.9660    7.5330    0.0000 C   0  0  0  0  0  0  0  0  0  0  0  0
  -29.0189    6.3698    0.0000 C   0  0  0  0  0  0  0  0  0  0  0  0
  -27.5380    6.6084    0.0000 C   0  0  0  0  0  0  0  0  0  0  0  0
  -26.5909    5.4452    0.0000 C   0  0  0  0  0  0  0  0  0  0  0  0
  -25.1100    5.6838    0.0000 C   0  0  0  0  0  0  0  0  0  0  0  0
  -24.1629    4.5206    0.0000 C   0  0  0  0  0  0  0  0  0  0  0  0
  -22.6820    4.7592    0.0000 C   0  0  0  0  0  0  0  0  0  0  0  0
  -21.7349    3.5960    0.0000 C   0  0  0  0  0  0  0  0  0  0  0  0
  -20.2540    3.8345    0.0000 C   0  0  0  0  0  0  0  0  0  0  0  0
  -19.3070    2.6713    0.0000 C   0  0  0  0  0  0  0  0  0  0  0  0
  -20.1641    1.4404    0.0000 O   0  0  0  0  0  0  0  0  0  0  0  0
  -17.8261    2.9099    0.0000 O   0  0  0  0  0  0  0  0  0  0  0  0
  -16.8790    1.7467    0.0000 C   0  0  0  0  0  0  0  0  0  0  0  0
  -15.3981    1.9853    0.0000 C   0  0  0  0  0  0  0  0  0  0  0  0
  -14.8642    3.3871    0.0000 O   0  0  0  0  0  0  0  0  0  0  0  0
  -13.3833    3.6257    0.0000 C   0  0  0  0  0  0  0  0  0  0  0  0
  -12.4363    2.4625    0.0000 C   0  0  0  0  0  0  0  0  0  0  0  0
  -12.9701    1.0607    0.0000 O   0  0  0  0  0  0  0  0  0  0  0  0
  -10.9554    2.7011    0.0000 C   0  0  0  0  0  0  0  0  0  0  0  0
  -10.0083    1.5379    0.0000 O   0  0  0  0  0  0  0  0  0  0  0  0
  -10.4215    4.1029    0.0000 C   0  0  0  0  0  0  0  0  0  0  0  0
   -8.9406    4.3415    0.0000 O   0  0  0  0  0  0  0  0  0  0  0  0
   -8.4068    5.7433    0.0000 C   0  0  0  0  0  0  0  0  0  0  0  0
   -6.9259    5.9819    0.0000 C   0  0  0  0  0  0  0  0  0  0  0  0
   -5.9788    4.8187    0.0000 O   0  0  0  0  0  0  0  0  0  0  0  0
   -6.5127    3.4169    0.0000 C   0  0  0  0  0  0  0  0  0  0  0  0
   -7.9936    3.1783    0.0000 C   0  0  0  0  0  0  0  0  0  0  0  0
   -8.5274    1.7765    0.0000 C   0  0  0  0  0  0  0  0  0  0  0  0
   -7.5803    0.6133    0.0000 C   0  0  0  0  0  0  0  0  0  0  0  0
   -8.1141   -0.7885    0.0000 C   0  0  0  0  0  0  0  0  0  0  0  0
   -7.1670   -1.9517    0.0000 C   0  0  0  0  0  0  0  0  0  0  0  0
   -5.5656    2.2537    0.0000 C   0  0  0  0  0  0  0  0  0  0  0  0
   -4.0847    2.4923    0.0000 C   0  0  0  0  0  0  0  0  0  0  0  0
   -3.1376    1.3291    0.0000 C   0  0  0  0  0  0  0  0  0  0  0  0
   -1.6567    1.5677    0.0000 C   0  0  0  0  0  0  0  0  0  0  0  0
   -0.7096    0.4045    0.0000 C   0  0  0  0  0  0  0  0  0  0  0  0
    0.7713    0.6431    0.0000 C   0  0  0  0  0  0  0  0  0  0  0  0
    1.7184   -0.5201    0.0000 C   0  0  0  0  0  0  0  0  0  0  0  0
    3.1993   -0.2815    0.0000 C   0  0  0  0  0  0  0  0  0  0  0  0
    4.1464   -1.4447    0.0000 C   0  0  0  0  0  0  0  0  0  0  0  0
    5.6273   -1.2061    0.0000 C   0  0  0  0  0  0  0  0  0  0  0  0
    6.1611    0.1957    0.0000 O   0  0  0  0  0  0  0  0  0  0  0  0
    6.5743   -2.3693    0.0000 O   0  0  0  0  0  0  0  0  0  0  0  0
    8.0552   -2.1308    0.0000 C   0  0  0  0  0  0  0  0  0  0  0  0
    9.0023   -3.2940    0.0000 C   0  0  0  0  0  0  0  0  0  0  0  0
    8.4685   -4.6958    0.0000 O   0  0  0  0  0  0  0  0  0  0  0  0
   10.4832   -3.0554    0.0000 C   0  0  0  0  0  0  0  0  0  0  0  0
   10.8220   -3.7770    0.0000 O   0  0  0  0  0  0  0  0  0  0  0  0
   11.0170   -1.6536    0.0000 C   0  0  0  0  0  0  0  0  0  0  0  0
   12.4980   -1.4150    0.0000 O   0  0  0  0  0  0  0  0  0  0  0  0
   13.4450   -2.5782    0.0000 C   0  0  0  0  0  0  0  0  0  0  0  0
   12.9112   -3.9800    0.0000 C   0  0  0  0  0  0  0  0  0  0  0  0
   11.4303   -4.2186    0.0000 O   0  0  0  0  0  0  0  0  0  0  0  0
   10.8965   -5.6204    0.0000 C   0  0  0  0  0  0  0  0  0  0  0  0
    9.4156   -5.8590    0.0000 O   0  0  0  0  0  0  0  0  0  0  0  0
    8.8818   -7.2607    0.0000 C   0  0  0  0  0  0  0  0  0  0  0  0
    7.4009   -7.4993    0.0000 C   0  0  0  0  0  0  0  0  0  0  0  0
    9.8288   -8.4240    0.0000 C   0  0  0  0  0  0  0  0  0  0  0  0
    9.2950   -9.8257    0.0000 O   0  0  0  0  0  0  0  0  0  0  0  0
   10.2421  -10.9890    0.0000 C   0  0  0  0  0  0  0  0  0  0  0  0
   11.7230  -10.7504    0.0000 O   0  0  0  0  0  0  0  0  0  0  0  0
    9.7083  -12.3907    0.0000 C   0  0  0  0  0  0  0  0  0  0  0  0
   10.6554  -13.5539    0.0000 C   0  0  0  0  0  0  0  0  0  0  0  0
    8.2274  -12.6293    0.0000 C   0  0  0  0  0  0  0  0  0  0  0  0
    7.6935  -14.0311    0.0000 C   0  0  0  0  0  0  0  0  0  0  0  0
   11.3097   -8.1854    0.0000 C   0  0  0  0  0  0  0  0  0  0  0  0
   12.2568   -9.3486    0.0000 O   0  0  0  0  0  0  0  0  0  0  0  0
   11.8436   -6.7836    0.0000 C   0  0  0  0  0  0  0  0  0  0  0  0
   13.3245   -6.5450    0.0000 O   0  0  0  0  0  0  0  0  0  0  0  0
   14.2715   -7.7082    0.0000 C   0  0  0  0  0  0  0  0  0  0  0  0
   13.7377   -9.1100    0.0000 O   0  0  0  0  0  0  0  0  0  0  0  0
   15.7524   -7.4696    0.0000 C   0  0  0  0  0  0  0  0  0  0  0  0
   16.6995   -8.6328    0.0000 C   0  0  0  0  0  0  0  0  0  0  0  0
   18.1804   -8.3942    0.0000 C   0  0  0  0  0  0  0  0  0  0  0  0
   19.1275   -9.5574    0.0000 C   0  0  0  0  0  0  0  0  0  0  0  0
   20.6084   -9.3188    0.0000 C   0  0  0  0  0  0  0  0  0  0  0  0
   21.1422   -7.9170    0.0000 C   0  0  0  0  0  0  0  0  0  0  0  0
   20.1952   -6.7538    0.0000 C   0  0  0  0  0  0  0  0  0  0  0  0
   18.7143   -6.9924    0.0000 C   0  0  0  0  0  0  0  0  0  0  0  0
   13.8583   -5.1432    0.0000 C   0  0  0  0  0  0  0  0  0  0  0  0
   13.6795   -6.6325    0.0000 C   0  0  0  0  0  0  0  0  0  0  0  0
   15.3392   -4.9046    0.0000 O   0  0  0  0  0  0  0  0  0  0  0  0
   15.8730   -3.5028    0.0000 C   0  0  0  0  0  0  0  0  0  0  0  0
   17.3539   -3.2642    0.0000 O   0  0  0  0  0  0  0  0  0  0  0  0
   17.8877   -1.8624    0.0000 C   0  0  0  0  0  0  0  0  0  0  0  0
   19.3686   -1.6238    0.0000 C   0  0  0  0  0  0  0  0  0  0  0  0
   20.3157   -2.7870    0.0000 O   0  0  0  0  0  0  0  0  0  0  0  0
   19.9025   -0.2220    0.0000 C   0  0  0  0  0  0  0  0  0  0  0  0
   21.1903   -0.9911    0.0000 O   0  0  0  0  0  0  0  0  0  0  0  0
   22.6635   -1.2734    0.0000 C   0  0  0  0  0  0  0  0  0  0  0  0
   22.6413   -2.7733    0.0000 O   0  0  0  0  0  0  0  0  0  0  0  0
   24.1444   -1.0348    0.0000 C   0  0  0  0  0  0  0  0  0  0  0  0
   25.4544   -0.3041    0.0000 C   0  0  0  0  0  0  0  0  0  0  0  0
   26.4354    0.8306    0.0000 C   0  0  0  0  0  0  0  0  0  0  0  0
   26.9693    2.2324    0.0000 C   0  0  0  0  0  0  0  0  0  0  0  0
   26.9914    3.7322    0.0000 C   0  0  0  0  0  0  0  0  0  0  0  0
   26.4993    5.1492    0.0000 C   0  0  0  0  0  0  0  0  0  0  0  0
   25.5522    6.3124    0.0000 C   0  0  0  0  0  0  0  0  0  0  0  0
   24.2644    7.0815    0.0000 C   0  0  0  0  0  0  0  0  0  0  0  0
   22.7912    7.3638    0.0000 C   0  0  0  0  0  0  0  0  0  0  0  0
   21.3103    7.1252    0.0000 C   0  0  0  0  0  0  0  0  0  0  0  0
   20.8182    8.5422    0.0000 C   0  0  0  0  0  0  0  0  0  0  0  0
   21.7993    9.6768    0.0000 C   0  0  0  0  0  0  0  0  0  0  0  0
   21.3072   11.0938    0.0000 C   0  0  0  0  0  0  0  0  0  0  0  0
   22.2882   12.2285    0.0000 C   0  0  0  0  0  0  0  0  0  0  0  0
   21.7961   13.6455    0.0000 C   0  0  0  0  0  0  0  0  0  0  0  0
   20.0003    6.3945    0.0000 O   0  0  0  0  0  0  0  0  0  0  0  0
   19.0193    5.2598    0.0000 C   0  0  0  0  0  0  0  0  0  0  0  0
   18.0722    6.4230    0.0000 O   0  0  0  0  0  0  0  0  0  0  0  0
   16.5913    6.1844    0.0000 C   0  0  0  0  0  0  0  0  0  0  0  0
   15.6442    7.3476    0.0000 C   0  0  0  0  0  0  0  0  0  0  0  0
   16.0575    4.7826    0.0000 C   0  0  0  0  0  0  0  0  0  0  0  0
   14.5628    4.9095    0.0000 O   0  0  0  0  0  0  0  0  0  0  0  0
   17.0045    3.6194    0.0000 C   0  0  0  0  0  0  0  0  0  0  0  0
   16.4707    2.2176    0.0000 O   0  0  0  0  0  0  0  0  0  0  0  0
   18.4854    3.8580    0.0000 C   0  0  0  0  0  0  0  0  0  0  0  0
   18.4633    2.3582    0.0000 O   0  0  0  0  0  0  0  0  0  0  0  0
   18.9554    0.9412    0.0000 C   0  0  0  0  0  0  0  0  0  0  0  0
   17.4745    0.7026    0.0000 O   0  0  0  0  0  0  0  0  0  0  0  0
   16.9407   -0.6992    0.0000 C   0  0  0  0  0  0  0  0  0  0  0  0
   15.4460   -0.5724    0.0000 C   0  0  0  0  0  0  0  0  0  0  0  0
   14.9259   -2.3396    0.0000 C   0  0  0  0  0  0  0  0  0  0  0  0
   15.4598   -0.9378    0.0000 O   0  0  0  0  0  0  0  0  0  0  0  0
   14.5127    0.2254    0.0000 C   0  0  0  0  0  0  0  0  0  0  0  0
   13.0318   -0.0132    0.0000 O   0  0  0  0  0  0  0  0  0  0  0  0
   15.0465    1.6272    0.0000 C   0  0  0  0  0  0  0  0  0  0  0  0
   14.0994    2.7904    0.0000 C   0  0  0  0  0  0  0  0  0  0  0  0
   14.6332    4.1922    0.0000 C   0  0  0  0  0  0  0  0  0  0  0  0
   13.6862    5.3554    0.0000 C   0  0  0  0  0  0  0  0  0  0  0  0
   14.2200    6.7572    0.0000 C   0  0  0  0  0  0  0  0  0  0  0  0
   13.2729    7.9204    0.0000 C   0  0  0  0  0  0  0  0  0  0  0  0
   13.8067    9.3222    0.0000 C   0  0  0  0  0  0  0  0  0  0  0  0
   12.8596   10.4854    0.0000 C   0  0  0  0  0  0  0  0  0  0  0  0
   13.3935   11.8872    0.0000 C   0  0  0  0  0  0  0  0  0  0  0  0
   12.4464   13.0504    0.0000 C   0  0  0  0  0  0  0  0  0  0  0  0
   12.9802   14.4522    0.0000 C   0  0  0  0  0  0  0  0  0  0  0  0
   10.0700   -0.4904    0.0000 O   0  0  0  0  0  0  0  0  0  0  0  0
    8.5891   -0.7290    0.0000 C   0  0  0  0  0  0  0  0  0  0  0  0
    7.6420    0.4342    0.0000 C   0  0  0  0  0  0  0  0  0  0  0  0
    8.1758    1.8360    0.0000 O   0  0  0  0  0  0  0  0  0  0  0  0
   -6.3921    7.3837    0.0000 O   0  0  0  0  0  0  0  0  0  0  0  0
   -7.3392    8.5469    0.0000 C   0  0  0  0  0  0  0  0  0  0  0  0
   -6.8053    9.9487    0.0000 C   0  0  0  0  0  0  0  0  0  0  0  0
   -8.8201    8.3083    0.0000 C   0  0  0  0  0  0  0  0  0  0  0  0
   -9.7671    9.4715    0.0000 O   0  0  0  0  0  0  0  0  0  0  0  0
   -9.3539    6.9065    0.0000 C   0  0  0  0  0  0  0  0  0  0  0  0
  -10.8348    6.6679    0.0000 O   0  0  0  0  0  0  0  0  0  0  0  0
  -11.3686    5.2661    0.0000 O   0  0  0  0  0  0  0  0  0  0  0  0
  -12.8495    5.0275    0.0000 C   0  0  0  0  0  0  0  0  0  0  0  0
  -13.7966    6.1907    0.0000 C   0  0  0  0  0  0  0  0  0  0  0  0
  -14.4510    0.8221    0.0000 O   0  0  0  0  0  0  0  0  0  0  0  0
  -14.9848   -0.5797    0.0000 C   0  0  0  0  0  0  0  0  0  0  0  0
  -14.0377   -1.7429    0.0000 C   0  0  0  0  0  0  0  0  0  0  0  0
  -16.4657   -0.8183    0.0000 C   0  0  0  0  0  0  0  0  0  0  0  0
  -16.9995   -2.2201    0.0000 O   0  0  0  0  0  0  0  0  0  0  0  0
  -18.4804   -2.4587    0.0000 C   0  0  0  0  0  0  0  0  0  0  0  0
  -19.4275   -1.2955    0.0000 O   0  0  0  0  0  0  0  0  0  0  0  0
  -20.9084   -1.5340    0.0000 C   0  0  0  0  0  0  0  0  0  0  0  0
  -21.9902   -0.4950    0.0000 C   0  0  0  0  0  0  0  0  0  0  0  0
  -21.4422   -2.9358    0.0000 C   0  0  0  0  0  0  0  0  0  0  0  0
  -22.9231   -3.1744    0.0000 O   0  0  0  0  0  0  0  0  0  0  0  0
  -23.4570   -4.5762    0.0000 C   0  0  0  0  0  0  0  0  0  0  0  0
  -22.5099   -5.7394    0.0000 O   0  0  0  0  0  0  0  0  0  0  0  0
  -24.9379   -4.8148    0.0000 C   0  0  0  0  0  0  0  0  0  0  0  0
  -25.4717   -6.2166    0.0000 C   0  0  0  0  0  0  0  0  0  0  0  0
  -25.8850   -3.6516    0.0000 C   0  0  0  0  0  0  0  0  0  0  0  0
  -27.3659   -3.8902    0.0000 C   0  0  0  0  0  0  0  0  0  0  0  0
  -20.4952   -4.0990    0.0000 C   0  0  0  0  0  0  0  0  0  0  0  0
  -21.0290   -5.5008    0.0000 O   0  0  0  0  0  0  0  0  0  0  0  0
  -20.0819   -6.6640    0.0000 C   0  0  0  0  0  0  0  0  0  0  0  0
  -18.6010   -6.4254    0.0000 O   0  0  0  0  0  0  0  0  0  0  0  0
  -20.6157   -8.0658    0.0000 C   0  0  0  0  0  0  0  0  0  0  0  0
  -19.6686   -9.2290    0.0000 C   0  0  0  0  0  0  0  0  0  0  0  0
  -20.2025  -10.6308    0.0000 C   0  0  0  0  0  0  0  0  0  0  0  0
  -21.6834  -10.8694    0.0000 C   0  0  0  0  0  0  0  0  0  0  0  0
  -22.2172  -12.2712    0.0000 C   0  0  0  0  0  0  0  0  0  0  0  0
  -21.2701  -13.4344    0.0000 C   0  0  0  0  0  0  0  0  0  0  0  0
  -19.7892  -13.1958    0.0000 C   0  0  0  0  0  0  0  0  0  0  0  0
  -19.2554  -11.7940    0.0000 C   0  0  0  0  0  0  0  0  0  0  0  0
  -19.0143   -3.8605    0.0000 C   0  0  0  0  0  0  0  0  0  0  0  0
  -18.0672   -5.0237    0.0000 O   0  0  0  0  0  0  0  0  0  0  0  0
  -17.4128    0.3449    0.0000 C   0  0  0  0  0  0  0  0  0  0  0  0
  -18.8937    0.1063    0.0000 O   0  0  0  0  0  0  0  0  0  0  0  0
  -19.8408    1.2695    0.0000 C   0  0  0  0  0  0  0  0  0  0  0  0
  -19.3070    2.6713    0.0000 O   0  0  0  0  0  0  0  0  0  0  0  0
  -20.2540    3.8345    0.0000 C   0  0  0  0  0  0  0  0  0  0  0  0
  -19.7202    5.2363    0.0000 C   0  0  0  0  0  0  0  0  0  0  0  0
  -20.6673    6.3995    0.0000 O   0  0  0  0  0  0  0  0  0  0  0  0
  -21.7349    3.5960    0.0000 C   0  0  0  0  0  0  0  0  0  0  0  0
  -22.9353    4.4954    0.0000 O   0  0  0  0  0  0  0  0  0  0  0  0
  -22.2688    2.1942    0.0000 C   0  0  0  0  0  0  0  0  0  0  0  0
  -23.7497    1.9556    0.0000 O   0  0  0  0  0  0  0  0  0  0  0  0
  -21.3217    1.0310    0.0000 C   0  0  0  0  0  0  0  0  0  0  0  0
  -22.0224   -0.2953    0.0000 O   0  0  0  0  0  0  0  0  0  0  0  0
  1  2  1  0
  2  3  1  0
  3  4  1  0
  4  5  1  0
  5  6  1  0
  6  7  1  0
  7  8  1  0
  8  9  1  0
  9 10  1  0
 10 11  1  0
 11 12  1  0
 12 13  2  0
 12 14  1  0
 15 14  1  1
 15 16  1  0
 16 17  1  6
 18 17  1  1
 18 19  1  0
 19 20  1  6
 19 21  1  0
 21 22  1  6
 21 23  1  0
 23 24  1  1
 25 24  1  6
 25 26  1  0
 26 27  1  1
 27 28  1  0
 28 29  1  6
 29 30  1  0
 30 31  1  0
 31 32  1  0
 32 33  1  0
 28 34  1  0
 34 35  1  0
 35 36  1  0
 36 37  1  0
 37 38  1  0
 38 39  1  0
 39 40  1  0
 40 41  1  0
 41 42  1  0
 42 43  1  0
 43 44  2  0
 43 45  1  0
 46 45  1  6
 46 47  1  0
 47 48  1  1
 47 49  1  0
 49 50  1  6
 49 51  1  0
 51 52  1  1
 53 52  1  1
 53 54  1  0
 54 55  1  6
 56 55  1  1
 56 57  1  0
 57 58  1  0
 58 59  1  6
 58 60  1  0
 60 61  1  1
 61 62  1  0
 62 63  2  0
 62 64  1  0
 64 65  1  1
 64 66  1  0
 66 67  1  0
 60 68  1  0
 68 69  1  6
 68 70  1  0
 70 71  1  6
 71 72  1  0
 72 73  2  0
 72 74  1  0
 74 75  2  0
 75 76  1  0
 76 77  2  0
 77 78  1  0
 78 79  2  0
 79 80  1  0
 80 81  2  0
 54 82  1  0
 82 83  1  1
 82 84  1  0
 84 85  1  0
 85 86  1  6
 87 86  1  1
 87 88  1  0
 88 89  1  6
 88 90  1  0
 90 91  1  6
 91 92  1  0
 92 93  2  0
 92 94  1  0
 94 95  1  0
 95 96  1  0
 96 97  1  0
 97 98  1  0
 98 99  1  0
 99100  1  0
100101  1  0
101102  1  0
102103  1  0
103104  1  1
104105  1  0
105106  1  0
106107  1  0
107108  1  0
103109  1  0
110109  1  1
110111  1  0
111112  1  0
112113  1  1
112114  1  0
114115  1  1
114116  1  0
116117  1  1
116118  1  0
118119  1  6
120119  1  1
120121  1  0
121122  1  0
122123  1  6
 85124  1  0
124125  1  1
125126  1  0
126127  2  0
126128  1  0
128129  1  0
129130  1  0
130131  1  0
131132  1  0
132133  1  0
133134  1  0
134135  1  0
135136  1  0
136137  1  0
137138  1  0
 51139  1  0
139140  1  0
140141  1  1
141142  1  0
 26143  1  0
143144  1  0
144145  1  1
144146  1  0
146147  1  1
146148  1  0
148149  1  1
 23150  1  0
150151  1  0
151152  1  6
 16153  1  0
153154  1  0
154155  1  1
154156  1  0
156157  1  6
158157  1  1
158159  1  0
159160  1  0
160161  1  6
160162  1  0
162163  1  1
163164  1  0
164165  2  0
164166  1  0
166167  1  1
166168  1  0
168169  1  0
162170  1  0
170171  1  6
171172  1  0
172173  2  0
172174  1  0
174175  2  0
175176  1  0
176177  2  0
177178  1  0
178179  2  0
179180  1  0
180181  2  0
170182  1  0
182183  1  6
156184  1  0
184185  1  1
186185  1  1
186187  1  0
187188  1  0
188189  1  1
189190  1  0
188191  1  0
191192  1  6
191193  1  0
193194  1  1
193195  1  0
195196  1  6
184 15  1  0
195186  1  0
151 18  1  0
182158  1  0
148 25  1  0
181176  1  0
140 46  1  0
124 53  1  0
 70 56  1  0
 81 76  1  0
122 87  1  0
120 90  1  0
118110  1  0
M  END
>  <identifier>  (423) 
CNP0085395.1

>  <canonical_smiles>  (423) 
CCCCCCCCCCCC(=O)O[C@H]1[C@H](O[C@@H]2[C@@H](O)[C@@H](O)[C@H](O[C@H]3[C@H](O[C@@H](CCCCC)CCCCCCCCCC(=O)O[C@H]4[C@H](O)[C@@H](O)[C@H](O[C@@H]5[C@@H](O[C@@H]6O[C@@H](C)[C@H](OC(=O)[C@@H](C)CC)[C@@H](O)[C@H]6OC(=O)/C=C/C6=CC=CC=C6)[C@H](C)O[C@@H](O[C@@H]6[C@@H](O)[C@H]7OC(=O)CCCCCCCCC[C@H](CCCCC)O[C@@H]8O[C@H](C)[C@H](O)[C@H](O)[C@H]8O[C@@H]7O[C@H]6C)[C@@H]5OC(=O)CCCCCCCCCCC)O[C@@H]4CO)O[C@H](C)[C@H](O)[C@@H]3O)O[C@H]2C)O[C@@H](C)[C@H](O[C@@H]2O[C@@H](C)[C@H](OC(=O)[C@@H](C)CC)[C@@H](OC(=O)/C=C/C3=CC=CC=C3)[C@H]2O)[C@H]1O[C@@H]1O[C@H](CO)[C@@H](O)[C@H](O)[C@H]1O

>  <standard_inchi>  (423) 
InChI=1S/C144H232O52/c1-17-23-27-29-31-33-39-45-61-73-99(149)185-131-129(195-136-111(161)106(156)105(155)95(79-145)179-136)121(191-138-116(166)124(120(88(14)172-138)188-134(168)82(8)22-6)182-101(151)77-75-91-63-53-49-54-64-91)89(15)175-143(131)189-117-85(11)171-135(112(162)109(117)159)193-125-107(157)103(153)83(9)169-139(125)177-93(67-51-25-19-3)69-57-43-37-35-41-47-59-71-97(147)181-123-96(80-146)180-137(113(163)110(123)160)196-130-122(192-141-127(184-102(152)78-76-92-65-55-50-56-66-92)114(164)118(86(12)173-141)187-133(167)81(7)21-5)90(16)176-144(132(130)186-100(150)74-62-46-40-34-32-30-28-24-18-2)190-119-87(13)174-142-128(115(119)165)183-98(148)72-60-48-42-36-38-44-58-70-94(68-52-26-20-4)178-140-126(194-142)108(158)104(154)84(10)170-140/h49-50,53-56,63-66,75-78,81-90,93-96,103-132,135-146,153-166H,17-48,51-52,57-62,67-74,79-80H2,1-16H3/b77-75+,78-76+/t81-,82-,83+,84+,85-,86-,87-,88-,89-,90-,93-,94-,95+,96+,103-,104-,105+,106-,107-,108-,109-,110+,111+,112+,113+,114+,115+,116+,117-,118-,119-,120-,121-,122-,123+,124-,125+,126+,127+,128+,129+,130+,131+,132+,135-,136-,137-,138-,139-,140-,141-,142-,143-,144-/m0/s1

>  <standard_inchi_key>  (423) 
FQYZTZXSIFWAPT-NMRWSHIASA-N

>  <name>  (423) 
purgin I

>  <iupac_name>  (423) 
[(2~{R},3~{S},4~{R},5~{R},6~{S})-6-[(2~{S},3~{S},4~{R},5~{R},6~{S})-5-dodecanoyloxy-3-[(2~{S},3~{R},4~{R},5~{R},6~{S})-4-hydroxy-6-methyl-5-[(2~{S})-2-methylbutanoyl]oxy-3-[(~{E})-3-phenylprop-2-enoyl]oxy-tetrahydropyran-2-yl]oxy-2-methyl-6-[[(1~{R},3~{S},5~{S},6~{R},7~{R},8~{R},20~{S},22~{R},24~{R},25~{R},26~{S})-7,25,26-trihydroxy-5,24-dimethyl-10-oxo-20-pentyl-2,4,9,21,23-pentaoxatricyclo[20.4.0.0^{3,8}]hexacosan-6-yl]oxy]tetrahydropyran-4-yl]oxy-4,5-dihydroxy-2-(hydroxymethyl)tetrahydropyran-3-yl] (11~{S})-11-[(2~{R},3~{R},4~{S},5~{R},6~{R})-3-[(2~{S},3~{R},4~{S},5~{R},6~{S})-5-[(2~{S},3~{R},4~{R},5~{S},6~{S})-3-dodecanoyloxy-5-[(2~{S},3~{R},4~{S},5~{S},6~{S})-3-hydroxy-6-methyl-5-[(2~{S})-2-methylbutanoyl]oxy-4-[(~{E})-3-phenylprop-2-enoyl]oxy-tetrahydropyran-2-yl]oxy-6-methyl-4-[(2~{S},3~{R},4~{S},5~{S},6~{R})-3,4,5-trihydroxy-6-(hydroxymethyl)tetrahydropyran-2-yl]oxy-tetrahydropyran-2-yl]oxy-3,4-dihydroxy-6-methyl-tetrahydropyran-2-yl]oxy-4,5-dihydroxy-6-methyl-tetrahydropyran-2-yl]oxyhexadecanoate

>  <annotation_level>  (423) 
5

>  <total_atom_count>  (423) 
428

>  <heavy_atom_count>  (423) 
196

>  <molecular_weight>  (423) 
2795.39

>  <exact_molecular_weight>  (423) 
2793.55097

>  <molecular_formula>  (423) 
C144H232O52

>  <alogp>  (423) 
13.13

>  <topological_polar_surface_area>  (423) 
718.68

>  <rotatable_bond_count>  (423) 
71

>  <hydrogen_bond_acceptors>  (423) 
52

>  <hydrogen_bond_donors>  (423) 
16

>  <hydrogen_bond_acceptors_lipinski>  (423) 
52

>  <hydrogen_bond_donors_lipinski>  (423) 
16

>  <lipinski_rule_of_five_violations>  (423) 
4

>  <aromatic_rings_count>  (423) 
2

>  <qed_drug_likeliness>  (423) 
0.01

>  <formal_charge>  (423) 
0

>  <fractioncsp3>  (423) 
0.83

>  <number_of_minimal_rings>  (423) 
13

>  <van_der_walls_volume>  (423) 
nan

>  <contains_sugar>  (423) 
True

>  <contains_ring_sugars>  (423) 
True

>  <contains_linear_sugars>  (423) 
False

>  <murcko_framework>  (423) 
O1CCCCC1OC2CC(OCC2OC3OCCC(OCC=Cc4ccccc4)C3)OC5COC(OC6CCCOC6OCCCCCCCCCCCOC7COC(OC8CC(OCC8OC9OCCCC9OCC=Cc%10ccccc%10)OC%11COC%12OC%13CCCOC%13OCCCCCCCCCCCOC%12C%11)CC7)CC5

>  <np_likeness>  (423) 
0.80

>  <chemical_class>  (423) 
Saccharolipids

>  <chemical_sub_class>  (423) 
Saccharolipids

>  <chemical_super_class>  (423) 
Lipids and lipid-like molecules

>  <direct_parent_classification>  (423) 
Saccharolipids

>  <np_classifier_pathway>  (423) 
Fatty acids

>  <np_classifier_superclass>  (423) 
Fatty acyls

>  <np_classifier_class>  (423) 
Resin glycosides

>  <np_classifier_is_glycoside>  (423) 
True

>  <organisms>  (423) 
Ipomea purga|Ipomoea purga

>  <collections>  (423) 
BIOFACQUIM|ChEBI NPs|Latin America dataset|NPASS

>  <dois>  (423) 
10.1021/np200080k|10.1021/np300739y

>  <synonyms>  (423) 
Purgin I|CHEMBL2336642

>  <cas>  (423) 
nan

$$$$

     RDKit          2D

 16 17  0  0  0  0  0  0  0  0999 V2000
   -5.8819   -1.2093    0.0000 C   0  0  0  0  0  0  0  0  0  0  0  0
   -4.6992   -0.2868    0.0000 C   0  0  0  0  0  0  0  0  0  0  0  0
   -3.3089   -0.8498    0.0000 C   0  0  0  0  0  0  0  0  0  0  0  0
   -2.1261    0.0727    0.0000 C   0  0  0  0  0  0  0  0  0  0  0  0
   -2.3336    1.5582    0.0000 C   0  0  0  0  0  0  0  0  0  0  0  0
   -1.1508    2.4808    0.0000 C   0  0  0  0  0  0  0  0  0  0  0  0
    0.2395    1.9177    0.0000 C   0  0  0  0  0  0  0  0  0  0  0  0
    0.4470    0.4321    0.0000 C   0  0  0  0  0  0  0  0  0  0  0  0
    1.8373   -0.1309    0.0000 C   0  0  0  0  0  0  0  0  0  0  0  0
    3.1101    0.6629    0.0000 C   0  0  0  0  0  0  0  0  0  0  0  0
    3.2159    2.1592    0.0000 O   0  0  0  0  0  0  0  0  0  0  0  0
    4.2583   -0.3022    0.0000 C   0  0  0  0  0  0  0  0  0  0  0  0
    3.6953   -1.6925    0.0000 N   0  0  0  0  0  0  0  0  0  0  0  0
    2.1990   -1.5867    0.0000 C   0  0  0  0  0  0  0  0  0  0  0  0
    1.2339   -2.7349    0.0000 O   0  0  0  0  0  0  0  0  0  0  0  0
   -0.7358   -0.4904    0.0000 O   0  0  0  0  0  0  0  0  0  0  0  0
  1  2  1  0
  2  3  2  3
  3  4  1  0
  4  5  2  0
  5  6  1  0
  6  7  2  0
  7  8  1  0
  8  9  2  3
  9 10  1  0
 10 11  2  0
 10 12  1  0
 12 13  1  0
 13 14  1  0
 14 15  2  0
  8 16  1  0
 16  4  1  0
 14  9  1  0
M  END
>  <identifier>  (424) 
CNP0284067.0

>  <canonical_smiles>  (424) 
CC=CC1=CC=CC(=C2C(=O)CNC2=O)O1

>  <standard_inchi>  (424) 
InChI=1S/C12H11NO3/c1-2-4-8-5-3-6-10(16-8)11-9(14)7-13-12(11)15/h2-6H,7H2,1H3,(H,13,15)

>  <standard_inchi_key>  (424) 
AGPWDHWZOCXKTC-UHFFFAOYSA-N

>  <name>  (424) 
nan

>  <iupac_name>  (424) 
3-(6-prop-1-enylpyran-2-ylidene)pyrrolidine-2,4-dione

>  <annotation_level>  (424) 
5

>  <total_atom_count>  (424) 
27

>  <heavy_atom_count>  (424) 
16

>  <molecular_weight>  (424) 
217.22

>  <exact_molecular_weight>  (424) 
217.07389

>  <molecular_formula>  (424) 
C12H11NO3

>  <alogp>  (424) 
0.99

>  <topological_polar_surface_area>  (424) 
55.40

>  <rotatable_bond_count>  (424) 
1

>  <hydrogen_bond_acceptors>  (424) 
3

>  <hydrogen_bond_donors>  (424) 
1

>  <hydrogen_bond_acceptors_lipinski>  (424) 
3

>  <hydrogen_bond_donors_lipinski>  (424) 
1

>  <lipinski_rule_of_five_violations>  (424) 
0

>  <aromatic_rings_count>  (424) 
0

>  <qed_drug_likeliness>  (424) 
0.53

>  <formal_charge>  (424) 
0

>  <fractioncsp3>  (424) 
0.17

>  <number_of_minimal_rings>  (424) 
2

>  <van_der_walls_volume>  (424) 
194.66

>  <contains_sugar>  (424) 
False

>  <contains_ring_sugars>  (424) 
False

>  <contains_linear_sugars>  (424) 
False

>  <murcko_framework>  (424) 
O1C=CC=CC1=C2CNCC2

>  <np_likeness>  (424) 
2.28

>  <chemical_class>  (424) 
Pyrans

>  <chemical_sub_class>  (424) 
Pyrans

>  <chemical_super_class>  (424) 
Organoheterocyclic compounds

>  <direct_parent_classification>  (424) 
Pyrans

>  <np_classifier_pathway>  (424) 
Polyketides

>  <np_classifier_superclass>  (424) 
Chromanes

>  <np_classifier_class>  (424) 
Azaphilones

>  <np_classifier_is_glycoside>  (424) 
False

>  <organisms>  (424) 
MEXU 26343|Unknown-bacterium fungus CRI247-01

>  <collections>  (424) 
BIOFACQUIM|Latin America dataset|NPAtlas|Super Natural II|UNPD (Universal Natural Products Database)

>  <dois>  (424) 
10.1016/j.phytochem.2008.08.005|10.1021/np300327y

>  <synonyms>  (424) 
Vermelhotin

>  <cas>  (424) 
nan

$$$$

     RDKit          2D

 23 25  0  0  0  0  0  0  0  0999 V2000
   -5.4872    2.0044    0.0000 C   0  0  0  0  0  0  0  0  0  0  0  0
   -4.7643    0.6901    0.0000 C   0  0  0  0  0  0  0  0  0  0  0  0
   -3.2646    0.6590    0.0000 C   0  0  0  0  0  0  0  0  0  0  0  0
   -2.5417   -0.6553    0.0000 C   0  0  0  0  0  0  0  0  0  0  0  0
   -3.3185   -1.9385    0.0000 C   0  0  0  0  0  0  0  0  0  0  0  0
   -4.8182   -1.9074    0.0000 O   0  0  0  0  0  0  0  0  0  0  0  0
   -1.0420   -0.6864    0.0000 C   0  0  0  0  0  0  0  0  0  0  0  0
   -0.5231   -2.0937    0.0000 O   0  0  0  0  0  0  0  0  0  0  0  0
    0.9008   -2.5655    0.0000 C   0  0  0  0  0  0  0  0  0  0  0  0
    1.0936   -4.0530    0.0000 O   0  0  0  0  0  0  0  0  0  0  0  0
    2.1574   -1.7464    0.0000 C   0  0  0  0  0  0  0  0  0  0  0  0
    2.3005   -0.2532    0.0000 C   0  0  0  0  0  0  0  0  0  0  0  0
    3.7427    0.1591    0.0000 C   0  0  0  0  0  0  0  0  0  0  0  0
    5.2390    0.0533    0.0000 C   0  0  0  0  0  0  0  0  0  0  0  0
    3.8983   -1.3328    0.0000 C   0  0  0  0  0  0  0  0  0  0  0  0
    4.1067    1.6143    0.0000 C   0  0  0  0  0  0  0  0  0  0  0  0
    3.0285    2.6571    0.0000 C   0  0  0  0  0  0  0  0  0  0  0  0
    1.5863    2.2448    0.0000 C   0  0  0  0  0  0  0  0  0  0  0  0
    1.2223    0.7896    0.0000 C   0  0  0  0  0  0  0  0  0  0  0  0
    0.2250    1.9101    0.0000 C   0  0  0  0  0  0  0  0  0  0  0  0
   -0.2653    0.5968    0.0000 C   0  0  0  0  0  0  0  0  0  0  0  0
   -0.9882    1.9112    0.0000 C   0  0  0  0  0  0  0  0  0  0  0  0
   -2.4879    1.9422    0.0000 C   0  0  0  0  0  0  0  0  0  0  0  0
  1  2  2  0
  2  3  1  0
  3  4  2  0
  4  5  1  0
  5  6  1  0
  4  7  1  0
  7  8  1  1
  8  9  1  0
  9 10  1  6
  9 11  1  0
 12 11  1  6
 12 13  1  0
 13 14  1  0
 13 15  1  0
 13 16  1  0
 16 17  1  0
 17 18  1  0
 18 19  1  0
 19 20  1  6
 19 21  1  0
 21 22  1  6
 22 23  1  0
 23  3  1  0
 21  7  1  0
 19 12  1  0
M  END
>  <identifier>  (425) 
CNP0365959.1

>  <canonical_smiles>  (425) 
C=CC1=C(CO)[C@@H]2O[C@@H](O)C[C@H]3C(C)(C)CCC[C@]3(C)[C@H]2CC1

>  <standard_inchi>  (425) 
InChI=1S/C20H32O3/c1-5-13-7-8-15-18(14(13)12-21)23-17(22)11-16-19(2,3)9-6-10-20(15,16)4/h5,15-18,21-22H,1,6-12H2,2-4H3/t15-,16-,17+,18-,20+/m0/s1

>  <standard_inchi_key>  (425) 
AXIGYXLFTGICHT-HBWRTXEVSA-N

>  <name>  (425) 
(5S,7R,8R,9R,10S)-(-)-7,8-seco-7,8-oxacassa-13,15-diene-7,17-diol

>  <iupac_name>  (425) 
(4~{a}~{R},6~{R},7~{a}~{S},11~{a}~{S},11~{b}~{R})-4-(hydroxymethyl)-8,8,11~{a}-trimethyl-3-vinyl-1,2,4~{a},6,7,7~{a},9,10,11,11~{b}-decahydrobenzo[d][1]benzoxepin-6-ol

>  <annotation_level>  (425) 
5

>  <total_atom_count>  (425) 
55

>  <heavy_atom_count>  (425) 
23

>  <molecular_weight>  (425) 
320.47

>  <exact_molecular_weight>  (425) 
320.23514

>  <molecular_formula>  (425) 
C20H32O3

>  <alogp>  (425) 
3.81

>  <topological_polar_surface_area>  (425) 
49.69

>  <rotatable_bond_count>  (425) 
2

>  <hydrogen_bond_acceptors>  (425) 
3

>  <hydrogen_bond_donors>  (425) 
2

>  <hydrogen_bond_acceptors_lipinski>  (425) 
3

>  <hydrogen_bond_donors_lipinski>  (425) 
2

>  <lipinski_rule_of_five_violations>  (425) 
0

>  <aromatic_rings_count>  (425) 
0

>  <qed_drug_likeliness>  (425) 
0.81

>  <formal_charge>  (425) 
0

>  <fractioncsp3>  (425) 
0.80

>  <number_of_minimal_rings>  (425) 
3

>  <van_der_walls_volume>  (425) 
318.74

>  <contains_sugar>  (425) 
False

>  <contains_ring_sugars>  (425) 
False

>  <contains_linear_sugars>  (425) 
False

>  <murcko_framework>  (425) 
O1CCC2CCCCC2C3CCC=CC13

>  <np_likeness>  (425) 
2.93

>  <chemical_class>  (425) 
Oxepanes

>  <chemical_sub_class>  (425) 
Oxepanes

>  <chemical_super_class>  (425) 
Organoheterocyclic compounds

>  <direct_parent_classification>  (425) 
Oxepanes

>  <np_classifier_pathway>  (425) 
Terpenoids

>  <np_classifier_superclass>  (425) 
Diterpenoids

>  <np_classifier_class>  (425) 
Cassane diterpenoids

>  <np_classifier_is_glycoside>  (425) 
False

>  <organisms>  (425) 
Acacia schaffneri

>  <collections>  (425) 
BIOFACQUIM|ChEBI NPs|Latin America dataset

>  <dois>  (425) 
10.1021/np200445y

>  <synonyms>  (425) 
Q27137734|(5S|7R|8R|9R|10S)-(-)-7|8-seco-7|8-oxacassa-13|15-diene-7|17-diol|(5S 7R 8R 9R 10S)-(\u201a\u00e0\u00ed)-7 8-seco-7 8-oxacassa-13 15-diene-7 17-diol

>  <cas>  (425) 
nan

$$$$

     RDKit          2D

 22 24  0  0  0  0  0  0  0  0999 V2000
   -5.8416    1.4541    0.0000 C   0  0  0  0  0  0  0  0  0  0  0  0
   -5.0157    0.2020    0.0000 C   0  0  0  0  0  0  0  0  0  0  0  0
   -3.5183    0.2912    0.0000 C   0  0  0  0  0  0  0  0  0  0  0  0
   -2.6924   -0.9609    0.0000 C   0  0  0  0  0  0  0  0  0  0  0  0
   -3.3638   -2.3023    0.0000 C   0  0  0  0  0  0  0  0  0  0  0  0
   -1.1950   -0.8717    0.0000 C   0  0  0  0  0  0  0  0  0  0  0  0
   -0.5649   -2.2329    0.0000 O   0  0  0  0  0  0  0  0  0  0  0  0
    0.8922   -2.5890    0.0000 C   0  0  0  0  0  0  0  0  0  0  0  0
    1.2036   -4.0563    0.0000 O   0  0  0  0  0  0  0  0  0  0  0  0
    2.0791   -1.6718    0.0000 C   0  0  0  0  0  0  0  0  0  0  0  0
    2.1020   -0.1720    0.0000 C   0  0  0  0  0  0  0  0  0  0  0  0
    3.5065    0.3547    0.0000 C   0  0  0  0  0  0  0  0  0  0  0  0
    5.0065    0.3691    0.0000 C   0  0  0  0  0  0  0  0  0  0  0  0
    3.7813   -1.1200    0.0000 C   0  0  0  0  0  0  0  0  0  0  0  0
    3.7527    1.8343    0.0000 C   0  0  0  0  0  0  0  0  0  0  0  0
    2.5944    2.7874    0.0000 C   0  0  0  0  0  0  0  0  0  0  0  0
    1.1899    2.2607    0.0000 C   0  0  0  0  0  0  0  0  0  0  0  0
    0.9437    0.7811    0.0000 C   0  0  0  0  0  0  0  0  0  0  0  0
   -0.1402    1.8180    0.0000 C   0  0  0  0  0  0  0  0  0  0  0  0
   -0.5236    0.4697    0.0000 C   0  0  0  0  0  0  0  0  0  0  0  0
   -1.3496    1.7218    0.0000 C   0  0  0  0  0  0  0  0  0  0  0  0
   -2.8469    1.6326    0.0000 C   0  0  0  0  0  0  0  0  0  0  0  0
  1  2  2  0
  2  3  1  0
  3  4  2  0
  4  5  1  0
  4  6  1  0
  6  7  1  1
  7  8  1  0
  8  9  1  6
  8 10  1  0
 11 10  1  6
 11 12  1  0
 12 13  1  0
 12 14  1  0
 12 15  1  0
 15 16  1  0
 16 17  1  0
 17 18  1  0
 18 19  1  6
 18 20  1  0
 20 21  1  6
 21 22  1  0
 22  3  1  0
 20  6  1  0
 18 11  1  0
M  END
>  <identifier>  (426) 
CNP0256162.1

>  <canonical_smiles>  (426) 
C=CC1=C(C)[C@@H]2O[C@@H](O)C[C@H]3C(C)(C)CCC[C@]3(C)[C@H]2CC1

>  <standard_inchi>  (426) 
InChI=1S/C20H32O2/c1-6-14-8-9-15-18(13(14)2)22-17(21)12-16-19(3,4)10-7-11-20(15,16)5/h6,15-18,21H,1,7-12H2,2-5H3/t15-,16-,17+,18-,20+/m0/s1

>  <standard_inchi_key>  (426) 
LYHHJTUWLMOJRZ-HBWRTXEVSA-N

>  <name>  (426) 
(5S,7R, 8R,9R,10S)-(-)-7,8-seco-7,8-oxacassa-13,15-dien-7-ol

>  <iupac_name>  (426) 
(4~{a}~{R},6~{R},7~{a}~{S},11~{a}~{S},11~{b}~{R})-4,8,8,11~{a}-tetramethyl-3-vinyl-1,2,4~{a},6,7,7~{a},9,10,11,11~{b}-decahydrobenzo[d][1]benzoxepin-6-ol

>  <annotation_level>  (426) 
5

>  <total_atom_count>  (426) 
54

>  <heavy_atom_count>  (426) 
22

>  <molecular_weight>  (426) 
304.47

>  <exact_molecular_weight>  (426) 
304.24023

>  <molecular_formula>  (426) 
C20H32O2

>  <alogp>  (426) 
4.84

>  <topological_polar_surface_area>  (426) 
29.46

>  <rotatable_bond_count>  (426) 
1

>  <hydrogen_bond_acceptors>  (426) 
2

>  <hydrogen_bond_donors>  (426) 
1

>  <hydrogen_bond_acceptors_lipinski>  (426) 
2

>  <hydrogen_bond_donors_lipinski>  (426) 
1

>  <lipinski_rule_of_five_violations>  (426) 
0

>  <aromatic_rings_count>  (426) 
0

>  <qed_drug_likeliness>  (426) 
0.75

>  <formal_charge>  (426) 
0

>  <fractioncsp3>  (426) 
0.80

>  <number_of_minimal_rings>  (426) 
3

>  <van_der_walls_volume>  (426) 
308.90

>  <contains_sugar>  (426) 
False

>  <contains_ring_sugars>  (426) 
False

>  <contains_linear_sugars>  (426) 
False

>  <murcko_framework>  (426) 
O1CCC2CCCCC2C3CCC=CC13

>  <np_likeness>  (426) 
2.85

>  <chemical_class>  (426) 
Oxepanes

>  <chemical_sub_class>  (426) 
Oxepanes

>  <chemical_super_class>  (426) 
Organoheterocyclic compounds

>  <direct_parent_classification>  (426) 
Oxepanes

>  <np_classifier_pathway>  (426) 
Terpenoids

>  <np_classifier_superclass>  (426) 
Diterpenoids

>  <np_classifier_class>  (426) 
Cassane diterpenoids

>  <np_classifier_is_glycoside>  (426) 
False

>  <organisms>  (426) 
Acacia jacquemontii|Acacia schaffneri

>  <collections>  (426) 
BIOFACQUIM|CMAUP (cCollective molecular activities of useful plants)|ChEBI NPs|Latin America dataset|NPASS

>  <dois>  (426) 
10.1021/np200445y

>  <synonyms>  (426) 
Q27137736|(5S|7R| 8R|9R|10S)-(-)-7|8-seco-7|8-oxacassa-13|15-dien-7-ol|(5S 7R 8R 9R 10S)-(\u201a\u00e0\u00ed)-7 8-seco-7 8-oxacassa-13 15-dien-7-ol

>  <cas>  (426) 
nan

$$$$

     RDKit          2D

 19 19  0  0  0  0  0  0  0  0999 V2000
    5.5625   -1.3553    0.0000 C   0  0  0  0  0  0  0  0  0  0  0  0
    4.0731   -1.1768    0.0000 C   0  0  0  0  0  0  0  0  0  0  0  0
    3.4830    0.2023    0.0000 C   0  0  0  0  0  0  0  0  0  0  0  0
    4.3823    1.4029    0.0000 C   0  0  0  0  0  0  0  0  0  0  0  0
    1.9937    0.3808    0.0000 C   0  0  0  0  0  0  0  0  0  0  0  0
    1.4036    1.7599    0.0000 O   0  0  0  0  0  0  0  0  0  0  0  0
    1.0944   -0.8198    0.0000 C   0  0  0  0  0  0  0  0  0  0  0  0
    1.6845   -2.1988    0.0000 C   0  0  0  0  0  0  0  0  0  0  0  0
   -0.3949   -0.6413    0.0000 C   0  0  0  0  0  0  0  0  0  0  0  0
   -1.2942   -1.8418    0.0000 C   0  0  0  0  0  0  0  0  0  0  0  0
   -2.7835   -1.6633    0.0000 C   0  0  0  0  0  0  0  0  0  0  0  0
   -3.6828   -2.8639    0.0000 O   0  0  0  0  0  0  0  0  0  0  0  0
   -3.3736   -0.2843    0.0000 C   0  0  0  0  0  0  0  0  0  0  0  0
   -4.8629   -0.1058    0.0000 C   0  0  0  0  0  0  0  0  0  0  0  0
   -2.4743    0.9163    0.0000 C   0  0  0  0  0  0  0  0  0  0  0  0
   -3.0644    2.2953    0.0000 O   0  0  0  0  0  0  0  0  0  0  0  0
   -0.9850    0.7378    0.0000 C   0  0  0  0  0  0  0  0  0  0  0  0
   -0.0857    1.9383    0.0000 C   0  0  0  0  0  0  0  0  0  0  0  0
   -0.6758    3.3174    0.0000 O   0  0  0  0  0  0  0  0  0  0  0  0
  1  2  1  0
  2  3  1  0
  3  4  1  6
  3  5  1  0
  5  6  2  0
  5  7  1  0
  7  8  1  1
  7  9  1  0
  9 10  2  0
 10 11  1  0
 11 12  1  0
 11 13  2  0
 13 14  1  0
 13 15  1  0
 15 16  1  0
 15 17  2  0
 17 18  1  0
 18 19  2  0
 17  9  1  0
M  END
>  <identifier>  (427) 
CNP0149596.1

>  <canonical_smiles>  (427) 
CC[C@@H](C)C(=O)[C@@H](C)C1=CC(O)=C(C)C(O)=C1C=O

>  <standard_inchi>  (427) 
InChI=1S/C15H20O4/c1-5-8(2)14(18)9(3)11-6-13(17)10(4)15(19)12(11)7-16/h6-9,17,19H,5H2,1-4H3/t8-,9+/m1/s1

>  <standard_inchi_key>  (427) 
PNGIBNMUXNYIFZ-BDAKNGLRSA-N

>  <name>  (427) 
nan

>  <iupac_name>  (427) 
6-[(1~{S},3~{R})-1,3-dimethyl-2-oxo-pentyl]-2,4-dihydroxy-3-methyl-benzaldehyde

>  <annotation_level>  (427) 
5

>  <total_atom_count>  (427) 
39

>  <heavy_atom_count>  (427) 
19

>  <molecular_weight>  (427) 
264.32

>  <exact_molecular_weight>  (427) 
264.13616

>  <molecular_formula>  (427) 
C15H20O4

>  <alogp>  (427) 
2.94

>  <topological_polar_surface_area>  (427) 
74.60

>  <rotatable_bond_count>  (427) 
5

>  <hydrogen_bond_acceptors>  (427) 
4

>  <hydrogen_bond_donors>  (427) 
2

>  <hydrogen_bond_acceptors_lipinski>  (427) 
4

>  <hydrogen_bond_donors_lipinski>  (427) 
2

>  <lipinski_rule_of_five_violations>  (427) 
0

>  <aromatic_rings_count>  (427) 
1

>  <qed_drug_likeliness>  (427) 
0.80

>  <formal_charge>  (427) 
0

>  <fractioncsp3>  (427) 
0.47

>  <number_of_minimal_rings>  (427) 
1

>  <van_der_walls_volume>  (427) 
251.72

>  <contains_sugar>  (427) 
False

>  <contains_ring_sugars>  (427) 
False

>  <contains_linear_sugars>  (427) 
False

>  <murcko_framework>  (427) 
c1ccccc1

>  <np_likeness>  (427) 
1.23

>  <chemical_class>  (427) 
Prenol lipids

>  <chemical_sub_class>  (427) 
Monoterpenoids

>  <chemical_super_class>  (427) 
Lipids and lipid-like molecules

>  <direct_parent_classification>  (427) 
Aromatic monoterpenoids

>  <np_classifier_pathway>  (427) 
Polyketides

>  <np_classifier_superclass>  (427) 
nan

>  <np_classifier_class>  (427) 
nan

>  <np_classifier_is_glycoside>  (427) 
False

>  <organisms>  (427) 
Ascochyta pisi|MEXU 26343

>  <collections>  (427) 
BIOFACQUIM|EMNPD|Latin America dataset|NPAtlas

>  <dois>  (427) 
10.1021/np300327y

>  <synonyms>  (427) 
Ascosalitoxin

>  <cas>  (427) 
nan

$$$$

     RDKit          2D

 33 39  0  0  0  0  0  0  0  0999 V2000
    7.2476    2.2436    0.0000 C   0  0  0  0  0  0  0  0  0  0  0  0
    6.5853    0.8978    0.0000 C   0  0  0  0  0  0  0  0  0  0  0  0
    8.0257    0.4792    0.0000 C   0  0  0  0  0  0  0  0  0  0  0  0
    6.4232   -0.5935    0.0000 C   0  0  0  0  0  0  0  0  0  0  0  0
    5.0508   -1.1987    0.0000 C   0  0  0  0  0  0  0  0  0  0  0  0
    3.8404   -0.3128    0.0000 C   0  0  0  0  0  0  0  0  0  0  0  0
    4.0024    1.1784    0.0000 C   0  0  0  0  0  0  0  0  0  0  0  0
    2.7920    2.0644    0.0000 C   0  0  0  0  0  0  0  0  0  0  0  0
    1.4195    1.4591    0.0000 C   0  0  0  0  0  0  0  0  0  0  0  0
    1.2575   -0.0321    0.0000 C   0  0  0  0  0  0  0  0  0  0  0  0
    2.4679   -0.9181    0.0000 C   0  0  0  0  0  0  0  0  0  0  0  0
    1.9994   -2.3430    0.0000 N   0  0  0  0  0  0  0  0  0  0  0  0
    0.4994   -2.3377    0.0000 C   0  0  0  0  0  0  0  0  0  0  0  0
   -0.2324   -3.6471    0.0000 O   0  0  0  0  0  0  0  0  0  0  0  0
    0.0409   -0.9095    0.0000 C   0  0  0  0  0  0  0  0  0  0  0  0
   -0.4176    0.5187    0.0000 C   0  0  0  0  0  0  0  0  0  0  0  0
   -1.9176    0.5240    0.0000 C   0  0  0  0  0  0  0  0  0  0  0  0
   -2.7324    0.4054    0.0000 N   0  0  0  0  0  0  0  0  0  0  0  0
   -4.0601    0.1280    0.0000 C   0  0  0  0  0  0  0  0  0  0  0  0
   -4.3780    0.9851    0.0000 O   0  0  0  0  0  0  0  0  0  0  0  0
   -4.8542   -0.0894    0.0000 C   0  0  0  0  0  0  0  0  0  0  0  0
   -6.3542   -0.0841    0.0000 C   0  0  0  0  0  0  0  0  0  0  0  0
   -6.8127    1.3441    0.0000 C   0  0  0  0  0  0  0  0  0  0  0  0
   -5.5961    2.2215    0.0000 C   0  0  0  0  0  0  0  0  0  0  0  0
   -4.3857    1.3356    0.0000 N   0  0  0  0  0  0  0  0  0  0  0  0
   -2.9174    1.6422    0.0000 C   0  0  0  0  0  0  0  0  0  0  0  0
   -2.4488    3.0672    0.0000 O   0  0  0  0  0  0  0  0  0  0  0  0
   -3.8545   -1.2076    0.0000 C   0  0  0  0  0  0  0  0  0  0  0  0
   -2.3862   -0.9009    0.0000 C   0  0  0  0  0  0  0  0  0  0  0  0
   -1.1758   -1.7869    0.0000 C   0  0  0  0  0  0  0  0  0  0  0  0
   -2.1834   -2.8981    0.0000 C   0  0  0  0  0  0  0  0  0  0  0  0
   -0.3198   -3.0187    0.0000 C   0  0  0  0  0  0  0  0  0  0  0  0
    5.3749    1.7837    0.0000 O   0  0  0  0  0  0  0  0  0  0  0  0
  1  2  1  0
  2  3  1  0
  2  4  1  0
  4  5  2  0
  5  6  1  0
  6  7  2  0
  7  8  1  0
  8  9  2  0
  9 10  1  0
 10 11  2  0
 11 12  1  0
 12 13  1  0
 13 14  2  0
 13 15  1  0
 15 16  1  1
 17 16  1  1
 17 18  1  0
 18 19  1  0
 19 20  2  0
 19 21  1  0
 21 22  1  1
 22 23  1  0
 23 24  1  0
 24 25  1  0
 25 26  1  0
 26 27  2  0
 21 28  1  0
 28 29  1  0
 29 30  1  6
 30 31  1  0
 30 32  1  0
  7 33  1  0
 33  2  1  0
 11  6  1  0
 30 15  1  0
 15 10  1  0
 26 17  1  0
 29 17  1  0
 25 21  1  0
M  END
>  <identifier>  (428) 
CNP0173011.1

>  <canonical_smiles>  (428) 
CC1(C)C=CC2=C(C=CC3=C2NC(=O)[C@@]32C[C@@]34NC(=O)[C@]5(CCCN5C3=O)C[C@H]4C2(C)C)O1

>  <standard_inchi>  (428) 
InChI=1S/C26H29N3O4/c1-22(2)10-8-14-16(33-22)7-6-15-18(14)27-20(31)25(15)13-26-17(23(25,3)4)12-24(19(30)28-26)9-5-11-29(24)21(26)32/h6-8,10,17H,5,9,11-13H2,1-4H3,(H,27,31)(H,28,30)/t17-,24-,25+,26-/m0/s1

>  <standard_inchi_key>  (428) 
RNWRZMCJFWSZOX-OFVWMMNVSA-N

>  <name>  (428) 
notoamide B

>  <iupac_name>  (428) 
(1'~{S},3~{R},7'~{S},9'~{S})-7,7,10',10'-tetramethylspiro[1~{H}-pyrano[2,3-g]indole-3,11'-3,13-diazatetracyclo[5.5.2.0^{1,9}.0^{3,7}]tetradecane]-2,2',14'-trione

>  <annotation_level>  (428) 
5

>  <total_atom_count>  (428) 
62

>  <heavy_atom_count>  (428) 
33

>  <molecular_weight>  (428) 
447.54

>  <exact_molecular_weight>  (428) 
447.21581

>  <molecular_formula>  (428) 
C26H29N3O4

>  <alogp>  (428) 
2.74

>  <topological_polar_surface_area>  (428) 
87.74

>  <rotatable_bond_count>  (428) 
0

>  <hydrogen_bond_acceptors>  (428) 
4

>  <hydrogen_bond_donors>  (428) 
2

>  <hydrogen_bond_acceptors_lipinski>  (428) 
4

>  <hydrogen_bond_donors_lipinski>  (428) 
2

>  <lipinski_rule_of_five_violations>  (428) 
0

>  <aromatic_rings_count>  (428) 
1

>  <qed_drug_likeliness>  (428) 
0.64

>  <formal_charge>  (428) 
0

>  <fractioncsp3>  (428) 
0.58

>  <number_of_minimal_rings>  (428) 
8

>  <van_der_walls_volume>  (428) 
396.14

>  <contains_sugar>  (428) 
False

>  <contains_ring_sugars>  (428) 
False

>  <contains_linear_sugars>  (428) 
False

>  <murcko_framework>  (428) 
O1c2ccc3c(NCC34CC5CC67N(CCC6)CC5(NC7)C4)c2C=CC1

>  <np_likeness>  (428) 
2.29

>  <chemical_class>  (428) 
Benzopyrans

>  <chemical_sub_class>  (428) 
1-benzopyrans

>  <chemical_super_class>  (428) 
Organoheterocyclic compounds

>  <direct_parent_classification>  (428) 
2,2-dimethyl-1-benzopyrans

>  <np_classifier_pathway>  (428) 
Alkaloids

>  <np_classifier_superclass>  (428) 
Peptide alkaloids

>  <np_classifier_class>  (428) 
Indole diketopiperazine alkaloids (L-Trp, L-Pro)

>  <np_classifier_is_glycoside>  (428) 
False

>  <organisms>  (428) 
Aspergillus sp.|Aspergillus westerdijkiae

>  <collections>  (428) 
BIOFACQUIM|CMNPD|EMNPD|KNApSaCK|Latin America dataset|NPAtlas

>  <dois>  (428) 
10.1002/anie.200604381|10.1021/np200954v|10.1039/b805113p

>  <synonyms>  (428) 
(-)-Notoamide B|(1'S|3R|7'S|9'S)-7|7|10'|10'-tetramethylspiro1H-pyrano2|3-gindole-3|11'-3|13-diazatetracyclo5.5.2.01|9.03|7tetradecane-2|2'|14'-trione|CHEMBL2042022|CHEBI:199834|DTXSID801046203|937791-52-1|Notoamide B

>  <cas>  (428) 
937791-52-1

$$$$

     RDKit          2D

 25 28  0  0  0  0  0  0  0  0999 V2000
    4.3527    3.6841    0.0000 C   0  0  0  0  0  0  0  0  0  0  0  0
    3.0400    2.9583    0.0000 C   0  0  0  0  0  0  0  0  0  0  0  0
    1.7551    3.7322    0.0000 O   0  0  0  0  0  0  0  0  0  0  0  0
    3.0122    1.4585    0.0000 O   0  0  0  0  0  0  0  0  0  0  0  0
    1.6995    0.7327    0.0000 C   0  0  0  0  0  0  0  0  0  0  0  0
    0.4146    1.5066    0.0000 C   0  0  0  0  0  0  0  0  0  0  0  0
   -0.8981    0.7808    0.0000 C   0  0  0  0  0  0  0  0  0  0  0  0
   -2.1830    1.5547    0.0000 C   0  0  0  0  0  0  0  0  0  0  0  0
   -2.1553    3.0544    0.0000 C   0  0  0  0  0  0  0  0  0  0  0  0
   -3.4957    0.8289    0.0000 C   0  0  0  0  0  0  0  0  0  0  0  0
   -3.5235   -0.6709    0.0000 C   0  0  0  0  0  0  0  0  0  0  0  0
   -2.2385   -1.4448    0.0000 C   0  0  0  0  0  0  0  0  0  0  0  0
   -0.9258   -0.7190    0.0000 C   0  0  0  0  0  0  0  0  0  0  0  0
    0.3591   -1.4929    0.0000 C   0  0  0  0  0  0  0  0  0  0  0  0
   -0.9536   -2.2187    0.0000 C   0  0  0  0  0  0  0  0  0  0  0  0
    0.3313   -2.9926    0.0000 C   0  0  0  0  0  0  0  0  0  0  0  0
    1.6163   -3.7665    0.0000 C   0  0  0  0  0  0  0  0  0  0  0  0
    2.9290   -3.0407    0.0000 C   0  0  0  0  0  0  0  0  0  0  0  0
    2.9567   -1.5409    0.0000 C   0  0  0  0  0  0  0  0  0  0  0  0
    3.4957   -0.1411    0.0000 C   0  0  0  0  0  0  0  0  0  0  0  0
    4.4289   -1.8287    0.0000 C   0  0  0  0  0  0  0  0  0  0  0  0
    1.6718   -0.7670    0.0000 C   0  0  0  0  0  0  0  0  0  0  0  0
   -4.9584   -1.1079    0.0000 O   0  0  0  0  0  0  0  0  0  0  0  0
   -5.8175    0.1217    0.0000 C   0  0  0  0  0  0  0  0  0  0  0  0
   -4.9135    1.3187    0.0000 C   0  0  0  0  0  0  0  0  0  0  0  0
  1  2  1  0
  2  3  2  0
  2  4  1  0
  5  4  1  1
  5  6  1  0
  7  6  1  6
  7  8  1  0
  8  9  1  6
  8 10  1  0
 10 11  2  0
 11 12  1  0
 13 12  1  1
 13 14  1  0
 14 15  1  1
 14 16  1  0
 16 17  1  0
 17 18  1  0
 18 19  1  0
 19 20  1  0
 19 21  1  0
 22 19  1  1
 11 23  1  0
 23 24  1  0
 24 25  2  0
 22  5  1  0
 13  7  1  0
 22 14  1  0
 25 10  1  0
M  END
>  <identifier>  (429) 
CNP0172755.1

>  <canonical_smiles>  (429) 
CC(=O)O[C@@H]1C[C@H]2[C@@H](C)C3=C(C[C@@H]2[C@@]2(C)CCCC(C)(C)[C@H]12)OC=C3

>  <standard_inchi>  (429) 
InChI=1S/C22H32O3/c1-13-15-7-10-24-18(15)12-17-16(13)11-19(25-14(2)23)20-21(3,4)8-6-9-22(17,20)5/h7,10,13,16-17,19-20H,6,8-9,11-12H2,1-5H3/t13-,16-,17-,19+,20-,22+/m0/s1

>  <standard_inchi_key>  (429) 
RTHBKQKTWBMPLC-LWODCIKUSA-N

>  <name>  (429) 
nan

>  <iupac_name>  (429) 
[(4~{a}~{S},5~{R},6~{a}~{S},7~{R},11~{a}~{S},11~{b}~{R})-4,4,7,11~{b}-tetramethyl-1,2,3,4~{a},5,6,6~{a},7,11,11~{a}-decahydronaphtho[2,1-f]benzofuran-5-yl] acetate

>  <annotation_level>  (429) 
5

>  <total_atom_count>  (429) 
57

>  <heavy_atom_count>  (429) 
25

>  <molecular_weight>  (429) 
344.5

>  <exact_molecular_weight>  (429) 
344.23514

>  <molecular_formula>  (429) 
C22H32O3

>  <alogp>  (429) 
5.34

>  <topological_polar_surface_area>  (429) 
39.44

>  <rotatable_bond_count>  (429) 
1

>  <hydrogen_bond_acceptors>  (429) 
3

>  <hydrogen_bond_donors>  (429) 
0

>  <hydrogen_bond_acceptors_lipinski>  (429) 
3

>  <hydrogen_bond_donors_lipinski>  (429) 
0

>  <lipinski_rule_of_five_violations>  (429) 
1

>  <aromatic_rings_count>  (429) 
1

>  <qed_drug_likeliness>  (429) 
0.65

>  <formal_charge>  (429) 
0

>  <fractioncsp3>  (429) 
0.77

>  <number_of_minimal_rings>  (429) 
4

>  <van_der_walls_volume>  (429) 
336.98

>  <contains_sugar>  (429) 
False

>  <contains_ring_sugars>  (429) 
False

>  <contains_linear_sugars>  (429) 
False

>  <murcko_framework>  (429) 
o1ccc2c1CC3C(C2)CCC4CCCCC43

>  <np_likeness>  (429) 
3.07

>  <chemical_class>  (429) 
Prenol lipids

>  <chemical_sub_class>  (429) 
Diterpenoids

>  <chemical_super_class>  (429) 
Lipids and lipid-like molecules

>  <direct_parent_classification>  (429) 
Diterpenoids

>  <np_classifier_pathway>  (429) 
Terpenoids

>  <np_classifier_superclass>  (429) 
Diterpenoids

>  <np_classifier_class>  (429) 
Cassane diterpenoids

>  <np_classifier_is_glycoside>  (429) 
False

>  <organisms>  (429) 
Caesalpinia platyloba

>  <collections>  (429) 
BIOFACQUIM|Latin America dataset

>  <dois>  (429) 
10.1016/j.phytochem.2013.09.028

>  <synonyms>  (429) 
(\u201a\u00e0\u00ed)-(5S 6R 8S 9S 10R 14R)-6-acetoxyvouacapane

>  <cas>  (429) 
nan

$$$$

     RDKit          2D

 24 26  0  0  0  0  0  0  0  0999 V2000
   -6.3431   -0.0014    0.0000 C   0  0  0  0  0  0  0  0  0  0  0  0
   -5.1304   -0.8843    0.0000 C   0  0  0  0  0  0  0  0  0  0  0  0
   -3.7595   -0.2756    0.0000 C   0  0  0  0  0  0  0  0  0  0  0  0
   -3.6012    1.2160    0.0000 C   0  0  0  0  0  0  0  0  0  0  0  0
   -2.2302    1.8247    0.0000 C   0  0  0  0  0  0  0  0  0  0  0  0
   -1.0176    0.9418    0.0000 C   0  0  0  0  0  0  0  0  0  0  0  0
   -1.1759   -0.5498    0.0000 C   0  0  0  0  0  0  0  0  0  0  0  0
    0.0367   -1.4327    0.0000 C   0  0  0  0  0  0  0  0  0  0  0  0
    1.4076   -0.8240    0.0000 C   0  0  0  0  0  0  0  0  0  0  0  0
    2.6202   -1.7070    0.0000 O   0  0  0  0  0  0  0  0  0  0  0  0
    2.4619   -3.1986    0.0000 C   0  0  0  0  0  0  0  0  0  0  0  0
    3.6745   -4.0815    0.0000 C   0  0  0  0  0  0  0  0  0  0  0  0
    1.0910   -3.8073    0.0000 O   0  0  0  0  0  0  0  0  0  0  0  0
    1.5660    0.6676    0.0000 C   0  0  0  0  0  0  0  0  0  0  0  0
    2.9369    1.2763    0.0000 C   0  0  0  0  0  0  0  0  0  0  0  0
    4.4333    1.3794    0.0000 C   0  0  0  0  0  0  0  0  0  0  0  0
    3.2983   -0.1795    0.0000 C   0  0  0  0  0  0  0  0  0  0  0  0
    3.0952    2.7679    0.0000 C   0  0  0  0  0  0  0  0  0  0  0  0
    1.8826    3.6508    0.0000 C   0  0  0  0  0  0  0  0  0  0  0  0
    0.5117    3.0421    0.0000 C   0  0  0  0  0  0  0  0  0  0  0  0
    0.3533    1.5505    0.0000 C   0  0  0  0  0  0  0  0  0  0  0  0
   -0.8593    2.4334    0.0000 C   0  0  0  0  0  0  0  0  0  0  0  0
   -2.5469   -1.1585    0.0000 C   0  0  0  0  0  0  0  0  0  0  0  0
   -2.7052   -2.6501    0.0000 C   0  0  0  0  0  0  0  0  0  0  0  0
  1  2  2  0
  2  3  1  0
  3  4  2  0
  4  5  1  0
  6  5  1  6
  6  7  1  0
  7  8  1  1
  8  9  1  0
  9 10  1  6
 10 11  1  0
 11 12  1  0
 11 13  2  0
  9 14  1  0
 14 15  1  6
 15 16  1  0
 15 17  1  0
 15 18  1  0
 18 19  1  0
 19 20  1  0
 20 21  1  0
 21 22  1  6
  7 23  1  0
 23 24  1  1
 23  3  1  0
 21  6  1  0
 21 14  1  0
M  END
>  <identifier>  (430) 
CNP0128172.1

>  <canonical_smiles>  (430) 
C=CC1=CC[C@H]2[C@@H](C[C@@H](OC(C)=O)[C@H]3C(C)(C)CCC[C@]23C)[C@H]1C

>  <standard_inchi>  (430) 
InChI=1S/C22H34O2/c1-7-16-9-10-18-17(14(16)2)13-19(24-15(3)23)20-21(4,5)11-8-12-22(18,20)6/h7,9,14,17-20H,1,8,10-13H2,2-6H3/t14-,17-,18-,19+,20-,22+/m0/s1

>  <standard_inchi_key>  (430) 
HYHIOWBLMCOLTB-QBUJOIIVSA-N

>  <name>  (430) 
nan

>  <iupac_name>  (430) 
[(1~{R},4~{a}~{S},4~{b}~{R},8~{a}~{S},9~{R},10~{a}~{S})-1,4~{b},8,8-tetramethyl-2-vinyl-1,4,4~{a},5,6,7,8~{a},9,10,10~{a}-decahydrophenanthren-9-yl] acetate

>  <annotation_level>  (430) 
5

>  <total_atom_count>  (430) 
58

>  <heavy_atom_count>  (430) 
24

>  <molecular_weight>  (430) 
330.51

>  <exact_molecular_weight>  (430) 
330.25588

>  <molecular_formula>  (430) 
C22H34O2

>  <alogp>  (430) 
5.54

>  <topological_polar_surface_area>  (430) 
26.30

>  <rotatable_bond_count>  (430) 
2

>  <hydrogen_bond_acceptors>  (430) 
2

>  <hydrogen_bond_donors>  (430) 
0

>  <hydrogen_bond_acceptors_lipinski>  (430) 
2

>  <hydrogen_bond_donors_lipinski>  (430) 
0

>  <lipinski_rule_of_five_violations>  (430) 
1

>  <aromatic_rings_count>  (430) 
0

>  <qed_drug_likeliness>  (430) 
0.62

>  <formal_charge>  (430) 
0

>  <fractioncsp3>  (430) 
0.77

>  <number_of_minimal_rings>  (430) 
3

>  <van_der_walls_volume>  (430) 
338.81

>  <contains_sugar>  (430) 
False

>  <contains_ring_sugars>  (430) 
False

>  <contains_linear_sugars>  (430) 
False

>  <murcko_framework>  (430) 
C1=CCC2C(C1)CCC3CCCCC32

>  <np_likeness>  (430) 
3.23

>  <chemical_class>  (430) 
Prenol lipids

>  <chemical_sub_class>  (430) 
Diterpenoids

>  <chemical_super_class>  (430) 
Lipids and lipid-like molecules

>  <direct_parent_classification>  (430) 
Isocopalane and spongiane diterpenoids

>  <np_classifier_pathway>  (430) 
Terpenoids

>  <np_classifier_superclass>  (430) 
Diterpenoids

>  <np_classifier_class>  (430) 
Cassane diterpenoids

>  <np_classifier_is_glycoside>  (430) 
False

>  <organisms>  (430) 
Caesalpinia platyloba

>  <collections>  (430) 
BIOFACQUIM|Latin America dataset

>  <dois>  (430) 
10.1016/j.phytochem.2013.09.028

>  <synonyms>  (430) 
(\u201a\u00e0\u00ed)-(5S 6R 8S 9S 10R 12Z 14R)-6-acetoxycassa-12 15-diene

>  <cas>  (430) 
nan

$$$$

     RDKit          2D

 24 26  0  0  0  0  0  0  0  0999 V2000
   -6.3431   -0.0014    0.0000 C   0  0  0  0  0  0  0  0  0  0  0  0
   -5.1304   -0.8843    0.0000 C   0  0  0  0  0  0  0  0  0  0  0  0
   -3.7595   -0.2756    0.0000 C   0  0  0  0  0  0  0  0  0  0  0  0
   -2.5469   -1.1585    0.0000 C   0  0  0  0  0  0  0  0  0  0  0  0
   -2.7052   -2.6501    0.0000 C   0  0  0  0  0  0  0  0  0  0  0  0
   -1.1759   -0.5498    0.0000 C   0  0  0  0  0  0  0  0  0  0  0  0
    0.0367   -1.4327    0.0000 C   0  0  0  0  0  0  0  0  0  0  0  0
    1.4076   -0.8240    0.0000 C   0  0  0  0  0  0  0  0  0  0  0  0
    2.6202   -1.7070    0.0000 O   0  0  0  0  0  0  0  0  0  0  0  0
    2.4619   -3.1986    0.0000 C   0  0  0  0  0  0  0  0  0  0  0  0
    3.6745   -4.0815    0.0000 C   0  0  0  0  0  0  0  0  0  0  0  0
    1.0910   -3.8073    0.0000 O   0  0  0  0  0  0  0  0  0  0  0  0
    1.5660    0.6676    0.0000 C   0  0  0  0  0  0  0  0  0  0  0  0
    2.9369    1.2763    0.0000 C   0  0  0  0  0  0  0  0  0  0  0  0
    4.4333    1.3794    0.0000 C   0  0  0  0  0  0  0  0  0  0  0  0
    3.2983   -0.1795    0.0000 C   0  0  0  0  0  0  0  0  0  0  0  0
    3.0952    2.7679    0.0000 C   0  0  0  0  0  0  0  0  0  0  0  0
    1.8826    3.6508    0.0000 C   0  0  0  0  0  0  0  0  0  0  0  0
    0.5117    3.0421    0.0000 C   0  0  0  0  0  0  0  0  0  0  0  0
    0.3533    1.5505    0.0000 C   0  0  0  0  0  0  0  0  0  0  0  0
   -0.8593    2.4334    0.0000 C   0  0  0  0  0  0  0  0  0  0  0  0
   -1.0176    0.9418    0.0000 C   0  0  0  0  0  0  0  0  0  0  0  0
   -2.2302    1.8247    0.0000 C   0  0  0  0  0  0  0  0  0  0  0  0
   -3.6012    1.2160    0.0000 C   0  0  0  0  0  0  0  0  0  0  0  0
  1  2  2  0
  2  3  1  0
  3  4  2  0
  4  5  1  0
  4  6  1  0
  6  7  1  1
  7  8  1  0
  8  9  1  6
  9 10  1  0
 10 11  1  0
 10 12  2  0
  8 13  1  0
 13 14  1  6
 14 15  1  0
 14 16  1  0
 14 17  1  0
 17 18  1  0
 18 19  1  0
 19 20  1  0
 20 21  1  6
 20 22  1  0
 22 23  1  6
 23 24  1  0
 24  3  1  0
 22  6  1  0
 20 13  1  0
M  END
>  <identifier>  (431) 
CNP0215889.1

>  <canonical_smiles>  (431) 
C=CC1=C(C)[C@@H]2C[C@@H](OC(C)=O)[C@H]3C(C)(C)CCC[C@]3(C)[C@H]2CC1

>  <standard_inchi>  (431) 
InChI=1S/C22H34O2/c1-7-16-9-10-18-17(14(16)2)13-19(24-15(3)23)20-21(4,5)11-8-12-22(18,20)6/h7,17-20H,1,8-13H2,2-6H3/t17-,18-,19+,20-,22+/m0/s1

>  <standard_inchi_key>  (431) 
YHLITXUMLUPSSE-SXFAUFNYSA-N

>  <name>  (431) 
nan

>  <iupac_name>  (431) 
[(4~{a}~{S},4~{b}~{R},8~{a}~{S},9~{R},10~{a}~{R})-1,4~{b},8,8-tetramethyl-2-vinyl-3,4,4~{a},5,6,7,8~{a},9,10,10~{a}-decahydrophenanthren-9-yl] acetate

>  <annotation_level>  (431) 
5

>  <total_atom_count>  (431) 
58

>  <heavy_atom_count>  (431) 
24

>  <molecular_weight>  (431) 
330.51

>  <exact_molecular_weight>  (431) 
330.25588

>  <molecular_formula>  (431) 
C22H34O2

>  <alogp>  (431) 
5.68

>  <topological_polar_surface_area>  (431) 
26.30

>  <rotatable_bond_count>  (431) 
2

>  <hydrogen_bond_acceptors>  (431) 
2

>  <hydrogen_bond_donors>  (431) 
0

>  <hydrogen_bond_acceptors_lipinski>  (431) 
2

>  <hydrogen_bond_donors_lipinski>  (431) 
0

>  <lipinski_rule_of_five_violations>  (431) 
1

>  <aromatic_rings_count>  (431) 
0

>  <qed_drug_likeliness>  (431) 
0.61

>  <formal_charge>  (431) 
0

>  <fractioncsp3>  (431) 
0.77

>  <number_of_minimal_rings>  (431) 
3

>  <van_der_walls_volume>  (431) 
338.22

>  <contains_sugar>  (431) 
False

>  <contains_ring_sugars>  (431) 
False

>  <contains_linear_sugars>  (431) 
False

>  <murcko_framework>  (431) 
C1=CC2CCC3CCCCC3C2CC1

>  <np_likeness>  (431) 
3.15

>  <chemical_class>  (431) 
Prenol lipids

>  <chemical_sub_class>  (431) 
Diterpenoids

>  <chemical_super_class>  (431) 
Lipids and lipid-like molecules

>  <direct_parent_classification>  (431) 
Isocopalane and spongiane diterpenoids

>  <np_classifier_pathway>  (431) 
Terpenoids

>  <np_classifier_superclass>  (431) 
Diterpenoids

>  <np_classifier_class>  (431) 
Cassane diterpenoids

>  <np_classifier_is_glycoside>  (431) 
False

>  <organisms>  (431) 
Caesalpinia platyloba

>  <collections>  (431) 
BIOFACQUIM|Latin America dataset

>  <dois>  (431) 
10.1016/j.phytochem.2013.09.028

>  <synonyms>  (431) 
(\u201a\u00e0\u00ed)-(5S 6R 8S 9S 10R 13E)-6-acetoxycassa-13 15-diene

>  <cas>  (431) 
nan

$$$$

     RDKit          2D

 29 31  0  0  0  0  0  0  0  0999 V2000
    0.9427   -5.2176    0.0000 C   0  0  0  0  0  0  0  0  0  0  0  0
    0.7955   -3.7248    0.0000 O   0  0  0  0  0  0  0  0  0  0  0  0
   -0.5709   -3.1059    0.0000 C   0  0  0  0  0  0  0  0  0  0  0  0
   -1.7901   -3.9798    0.0000 C   0  0  0  0  0  0  0  0  0  0  0  0
   -3.1564   -3.3609    0.0000 C   0  0  0  0  0  0  0  0  0  0  0  0
   -3.3036   -1.8681    0.0000 C   0  0  0  0  0  0  0  0  0  0  0  0
   -4.6700   -1.2492    0.0000 C   0  0  0  0  0  0  0  0  0  0  0  0
   -4.8172    0.2435    0.0000 C   0  0  0  0  0  0  0  0  0  0  0  0
   -3.5980    1.1174    0.0000 C   0  0  0  0  0  0  0  0  0  0  0  0
   -2.2317    0.4985    0.0000 O   0  0  0  0  0  0  0  0  0  0  0  0
   -3.7452    2.6102    0.0000 O   0  0  0  0  0  0  0  0  0  0  0  0
   -2.5261    3.4840    0.0000 C   0  0  0  0  0  0  0  0  0  0  0  0
   -2.6733    4.9768    0.0000 C   0  0  0  0  0  0  0  0  0  0  0  0
   -1.1597    2.8651    0.0000 C   0  0  0  0  0  0  0  0  0  0  0  0
    0.1441    3.6067    0.0000 C   0  0  0  0  0  0  0  0  0  0  0  0
    1.2524    2.5959    0.0000 C   0  0  0  0  0  0  0  0  0  0  0  0
    0.6335    1.2295    0.0000 C   0  0  0  0  0  0  0  0  0  0  0  0
    1.3751   -0.0743    0.0000 C   0  0  0  0  0  0  0  0  0  0  0  0
    0.6168   -1.3685    0.0000 O   0  0  0  0  0  0  0  0  0  0  0  0
    2.8751   -0.0840    0.0000 C   0  0  0  0  0  0  0  0  0  0  0  0
    3.6167   -1.3878    0.0000 C   0  0  0  0  0  0  0  0  0  0  0  0
    5.1167   -1.3974    0.0000 C   0  0  0  0  0  0  0  0  0  0  0  0
    5.8750   -0.1032    0.0000 C   0  0  0  0  0  0  0  0  0  0  0  0
    5.1334    1.2006    0.0000 C   0  0  0  0  0  0  0  0  0  0  0  0
    5.8917    2.4948    0.0000 O   0  0  0  0  0  0  0  0  0  0  0  0
    3.6334    1.2102    0.0000 O   0  0  0  0  0  0  0  0  0  0  0  0
   -0.8573    1.3959    0.0000 O   0  0  0  0  0  0  0  0  0  0  0  0
   -2.0845   -0.9943    0.0000 C   0  0  0  0  0  0  0  0  0  0  0  0
   -0.7181   -1.6132    0.0000 C   0  0  0  0  0  0  0  0  0  0  0  0
  1  2  1  0
  2  3  1  0
  3  4  2  0
  4  5  1  0
  5  6  2  0
  6  7  1  0
  7  8  2  0
  8  9  1  0
  9 10  2  0
  9 11  1  0
 11 12  1  0
 12 13  1  1
 12 14  1  0
 14 15  1  6
 15 16  1  0
 17 16  1  6
 17 18  1  0
 18 19  1  1
 18 20  1  0
 20 21  1  6
 21 22  1  0
 22 23  2  0
 23 24  1  0
 24 25  2  0
 24 26  1  0
 17 27  1  0
  6 28  1  0
 28 29  2  0
 29  3  1  0
 27 14  1  0
 26 20  1  0
M  END
>  <identifier>  (432) 
CNP0080290.1

>  <canonical_smiles>  (432) 
COC1=CC=C(/C=C\C(=O)O[C@@H](C)[C@@H]2CC[C@H]([C@H](O)[C@H]3CC=CC(=O)O3)O2)C=C1

>  <standard_inchi>  (432) 
InChI=1S/C22H26O7/c1-14(27-21(24)13-8-15-6-9-16(26-2)10-7-15)17-11-12-19(28-17)22(25)18-4-3-5-20(23)29-18/h3,5-10,13-14,17-19,22,25H,4,11-12H2,1-2H3/b13-8-/t14-,17-,18+,19+,22+/m0/s1

>  <standard_inchi_key>  (432) 
PRXVDDVCKQCKQP-IZONMWRVSA-N

>  <name>  (432) 
[(1S)-1-[(2S,5R)-5-[(S)-hydroxy-[(2R)-6-oxo-2,3-dihydropyran-2-yl]methyl]oxolan-2-yl]ethyl] (Z)-3-(4-methoxyphenyl)prop-2-enoate

>  <iupac_name>  (432) 
[(1~{S})-1-[(2~{S},5~{R})-5-[(~{S})-hydroxy-[(2~{R})-6-oxo-2,3-dihydropyran-2-yl]methyl]tetrahydrofuran-2-yl]ethyl] (~{Z})-3-(4-methoxyphenyl)prop-2-enoate

>  <annotation_level>  (432) 
5

>  <total_atom_count>  (432) 
55

>  <heavy_atom_count>  (432) 
29

>  <molecular_weight>  (432) 
402.44

>  <exact_molecular_weight>  (432) 
402.16785

>  <molecular_formula>  (432) 
C22H26O7

>  <alogp>  (432) 
2.42

>  <topological_polar_surface_area>  (432) 
91.29

>  <rotatable_bond_count>  (432) 
7

>  <hydrogen_bond_acceptors>  (432) 
7

>  <hydrogen_bond_donors>  (432) 
1

>  <hydrogen_bond_acceptors_lipinski>  (432) 
7

>  <hydrogen_bond_donors_lipinski>  (432) 
1

>  <lipinski_rule_of_five_violations>  (432) 
0

>  <aromatic_rings_count>  (432) 
1

>  <qed_drug_likeliness>  (432) 
0.55

>  <formal_charge>  (432) 
0

>  <fractioncsp3>  (432) 
0.46

>  <number_of_minimal_rings>  (432) 
3

>  <van_der_walls_volume>  (432) 
365.11

>  <contains_sugar>  (432) 
False

>  <contains_ring_sugars>  (432) 
False

>  <contains_linear_sugars>  (432) 
False

>  <murcko_framework>  (432) 
O(CC=Cc1ccccc1)CC2OC(CC2)CC3OCC=CC3

>  <np_likeness>  (432) 
1.61

>  <chemical_class>  (432) 
Cinnamic acids and derivatives

>  <chemical_sub_class>  (432) 
Cinnamic acids and derivatives

>  <chemical_super_class>  (432) 
Phenylpropanoids and polyketides

>  <direct_parent_classification>  (432) 
Cinnamic acids and derivatives

>  <np_classifier_pathway>  (432) 
Shikimates and Phenylpropanoids

>  <np_classifier_superclass>  (432) 
nan

>  <np_classifier_class>  (432) 
nan

>  <np_classifier_is_glycoside>  (432) 
False

>  <organisms>  (432) 
Hyptis brevipes

>  <collections>  (432) 
BIOFACQUIM|Latin America dataset|NPASS

>  <dois>  (432) 
10.1021/acs.jnatprod.6b00953

>  <synonyms>  (432) 
CHEMBL4082849|Brevipolide K

>  <cas>  (432) 
nan

$$$$

     RDKit          2D

 16 17  0  0  0  0  0  0  0  0999 V2000
   -3.1408   -2.9313    0.0000 C   0  0  0  0  0  0  0  0  0  0  0  0
   -1.8705   -2.1335    0.0000 O   0  0  0  0  0  0  0  0  0  0  0  0
   -1.9263   -0.6345    0.0000 C   0  0  0  0  0  0  0  0  0  0  0  0
   -3.2523    0.0667    0.0000 C   0  0  0  0  0  0  0  0  0  0  0  0
   -3.3081    1.5656    0.0000 C   0  0  0  0  0  0  0  0  0  0  0  0
   -2.0378    2.3634    0.0000 C   0  0  0  0  0  0  0  0  0  0  0  0
   -0.7118    1.6622    0.0000 C   0  0  0  0  0  0  0  0  0  0  0  0
    0.5585    2.4600    0.0000 C   0  0  0  0  0  0  0  0  0  0  0  0
    1.8845    1.7588    0.0000 C   0  0  0  0  0  0  0  0  0  0  0  0
    1.9402    0.2598    0.0000 C   0  0  0  0  0  0  0  0  0  0  0  0
    3.2663   -0.4414    0.0000 C   0  0  0  0  0  0  0  0  0  0  0  0
    3.3220   -1.9404    0.0000 C   0  0  0  0  0  0  0  0  0  0  0  0
    4.5365    0.3564    0.0000 O   0  0  0  0  0  0  0  0  0  0  0  0
    0.6700   -0.5380    0.0000 C   0  0  0  0  0  0  0  0  0  0  0  0
    0.7257   -2.0369    0.0000 O   0  0  0  0  0  0  0  0  0  0  0  0
   -0.6560    0.1632    0.0000 C   0  0  0  0  0  0  0  0  0  0  0  0
  1  2  1  0
  2  3  1  0
  3  4  2  0
  4  5  1  0
  5  6  2  0
  6  7  1  0
  7  8  2  0
  8  9  1  0
  9 10  2  0
 10 11  1  0
 11 12  1  0
 11 13  2  0
 10 14  1  0
 14 15  1  0
 14 16  2  0
 16  3  1  0
 16  7  1  0
M  END
>  <identifier>  (433) 
CNP0436851.0

>  <canonical_smiles>  (433) 
COC1=CC=CC2=CC=C(C(C)=O)C(O)=C12

>  <standard_inchi>  (433) 
InChI=1S/C13H12O3/c1-8(14)10-7-6-9-4-3-5-11(16-2)12(9)13(10)15/h3-7,15H,1-2H3

>  <standard_inchi_key>  (433) 
XNWOWNYWQOTWIX-UHFFFAOYSA-N

>  <name>  (433) 
nan

>  <iupac_name>  (433) 
1-(1-hydroxy-8-methoxy-2-naphthyl)ethanone

>  <annotation_level>  (433) 
5

>  <total_atom_count>  (433) 
28

>  <heavy_atom_count>  (433) 
16

>  <molecular_weight>  (433) 
216.24

>  <exact_molecular_weight>  (433) 
216.07864

>  <molecular_formula>  (433) 
C13H12O3

>  <alogp>  (433) 
2.76

>  <topological_polar_surface_area>  (433) 
46.53

>  <rotatable_bond_count>  (433) 
2

>  <hydrogen_bond_acceptors>  (433) 
3

>  <hydrogen_bond_donors>  (433) 
1

>  <hydrogen_bond_acceptors_lipinski>  (433) 
3

>  <hydrogen_bond_donors_lipinski>  (433) 
1

>  <lipinski_rule_of_five_violations>  (433) 
0

>  <aromatic_rings_count>  (433) 
2

>  <qed_drug_likeliness>  (433) 
0.78

>  <formal_charge>  (433) 
0

>  <fractioncsp3>  (433) 
0.15

>  <number_of_minimal_rings>  (433) 
2

>  <van_der_walls_volume>  (433) 
194.17

>  <contains_sugar>  (433) 
False

>  <contains_ring_sugars>  (433) 
False

>  <contains_linear_sugars>  (433) 
False

>  <murcko_framework>  (433) 
c1ccc2ccccc2c1

>  <np_likeness>  (433) 
0.55

>  <chemical_class>  (433) 
Naphthalenes

>  <chemical_sub_class>  (433) 
Naphthols and derivatives

>  <chemical_super_class>  (433) 
Benzenoids

>  <direct_parent_classification>  (433) 
Naphthols and derivatives

>  <np_classifier_pathway>  (433) 
Polyketides

>  <np_classifier_superclass>  (433) 
Naphthalenes

>  <np_classifier_class>  (433) 
Naphthalenes and derivatives

>  <np_classifier_is_glycoside>  (433) 
False

>  <organisms>  (433) 
Karwinskia parvifolia

>  <collections>  (433) 
BIOFACQUIM|Latin America dataset

>  <dois>  (433) 
10.1021/np500430q

>  <synonyms>  (433) 
2-acetyl-8-methoxynaphthol

>  <cas>  (433) 
nan

$$$$

     RDKit          2D

 22 23  0  0  0  0  0  0  0  0999 V2000
   -0.4490   -3.1569    0.0000 C   0  0  0  0  0  0  0  0  0  0  0  0
    0.6857   -2.1758    0.0000 C   0  0  0  0  0  0  0  0  0  0  0  0
    2.1027   -2.6678    0.0000 C   0  0  0  0  0  0  0  0  0  0  0  0
    3.2373   -1.6867    0.0000 C   0  0  0  0  0  0  0  0  0  0  0  0
    2.9549   -0.2135    0.0000 C   0  0  0  0  0  0  0  0  0  0  0  0
    4.0895    0.7676    0.0000 C   0  0  0  0  0  0  0  0  0  0  0  0
    5.4913    1.3015    0.0000 C   0  0  0  0  0  0  0  0  0  0  0  0
    4.8587   -0.5201    0.0000 C   0  0  0  0  0  0  0  0  0  0  0  0
    3.8072    2.2408    0.0000 C   0  0  0  0  0  0  0  0  0  0  0  0
    2.3902    2.7329    0.0000 C   0  0  0  0  0  0  0  0  0  0  0  0
    1.2555    1.7517    0.0000 C   0  0  0  0  0  0  0  0  0  0  0  0
    1.5379    0.2785    0.0000 C   0  0  0  0  0  0  0  0  0  0  0  0
    0.1209    0.7706    0.0000 C   0  0  0  0  0  0  0  0  0  0  0  0
    0.4033   -0.7026    0.0000 C   0  0  0  0  0  0  0  0  0  0  0  0
   -1.0137   -0.2105    0.0000 C   0  0  0  0  0  0  0  0  0  0  0  0
   -2.1483   -1.1917    0.0000 C   0  0  0  0  0  0  0  0  0  0  0  0
   -3.5653   -0.6996    0.0000 C   0  0  0  0  0  0  0  0  0  0  0  0
   -4.7000   -1.6808    0.0000 C   0  0  0  0  0  0  0  0  0  0  0  0
   -3.8477    0.7736    0.0000 C   0  0  0  0  0  0  0  0  0  0  0  0
   -5.2647    1.2656    0.0000 C   0  0  0  0  0  0  0  0  0  0  0  0
   -6.3993    0.2845    0.0000 O   0  0  0  0  0  0  0  0  0  0  0  0
   -5.5471    2.7388    0.0000 O   0  0  0  0  0  0  0  0  0  0  0  0
  1  2  1  0
  2  3  2  0
  3  4  1  0
  5  4  1  6
  5  6  1  0
  6  7  1  0
  6  8  1  0
  6  9  1  0
  9 10  1  0
 10 11  1  0
 11 12  1  0
 12 13  1  6
 12 14  1  0
 14 15  1  6
 15 16  1  0
 16 17  1  0
 17 18  1  6
 17 19  1  0
 19 20  1  0
 20 21  2  0
 20 22  1  0
 14  2  1  0
 12  5  1  0
M  END
>  <identifier>  (434) 
CNP0296306.1

>  <canonical_smiles>  (434) 
CC1=CC[C@H]2C(C)(C)CCC[C@]2(C)[C@H]1CC[C@H](C)CC(=O)O

>  <standard_inchi>  (434) 
InChI=1S/C20H34O2/c1-14(13-18(21)22)7-9-16-15(2)8-10-17-19(3,4)11-6-12-20(16,17)5/h8,14,16-17H,6-7,9-13H2,1-5H3,(H,21,22)/t14-,16-,17-,20+/m0/s1

>  <standard_inchi_key>  (434) 
FEENGIUGOPKQTF-JWWIWJDOSA-N

>  <name>  (434) 
(3S)-5-[(1S,4aS,8aS)-2,5,5,8a-tetramethyl-1,4,4a,5,6,7,8,8a-octahydronaphthalen-1-yl]-3-methylpentanoic acid

>  <iupac_name>  (434) 
(3~{S})-5-[(1~{S},4~{a}~{S},8~{a}~{S})-2,5,5,8~{a}-tetramethyl-1,4,4~{a},6,7,8-hexahydronaphthalen-1-yl]-3-methyl-pentanoic acid

>  <annotation_level>  (434) 
5

>  <total_atom_count>  (434) 
56

>  <heavy_atom_count>  (434) 
22

>  <molecular_weight>  (434) 
306.49

>  <exact_molecular_weight>  (434) 
306.25588

>  <molecular_formula>  (434) 
C20H34O2

>  <alogp>  (434) 
5.68

>  <topological_polar_surface_area>  (434) 
37.30

>  <rotatable_bond_count>  (434) 
5

>  <hydrogen_bond_acceptors>  (434) 
1

>  <hydrogen_bond_donors>  (434) 
1

>  <hydrogen_bond_acceptors_lipinski>  (434) 
1

>  <hydrogen_bond_donors_lipinski>  (434) 
1

>  <lipinski_rule_of_five_violations>  (434) 
1

>  <aromatic_rings_count>  (434) 
0

>  <qed_drug_likeliness>  (434) 
0.66

>  <formal_charge>  (434) 
0

>  <fractioncsp3>  (434) 
0.85

>  <number_of_minimal_rings>  (434) 
2

>  <van_der_walls_volume>  (434) 
322.55

>  <contains_sugar>  (434) 
False

>  <contains_ring_sugars>  (434) 
False

>  <contains_linear_sugars>  (434) 
False

>  <murcko_framework>  (434) 
C1=CCC2CCCCC2C1

>  <np_likeness>  (434) 
2.74

>  <chemical_class>  (434) 
Prenol lipids

>  <chemical_sub_class>  (434) 
Diterpenoids

>  <chemical_super_class>  (434) 
Lipids and lipid-like molecules

>  <direct_parent_classification>  (434) 
Diterpenoids

>  <np_classifier_pathway>  (434) 
Terpenoids

>  <np_classifier_superclass>  (434) 
Diterpenoids

>  <np_classifier_class>  (434) 
Labdane diterpenoids

>  <np_classifier_is_glycoside>  (434) 
False

>  <organisms>  (434) 
Ageratina jocotepecana|Prioria copaifera|Sinularia numerosa

>  <collections>  (434) 
BIOFACQUIM|Latin America dataset|NPASS|Super Natural II

>  <dois>  (434) 
10.1021/np500022w

>  <synonyms>  (434) 
SCHEMBL4607117|CHEMBL3233989|(\u201a\u00e0\u00ed)-(5S 9S 10S 13S)-labd-7-en-15-oic acid

>  <cas>  (434) 
nan

$$$$

     RDKit          2D

 23 24  0  0  0  0  0  0  0  0999 V2000
   -6.8988    2.5158    0.0000 C   0  0  0  0  0  0  0  0  0  0  0  0
   -5.4453    2.1453    0.0000 O   0  0  0  0  0  0  0  0  0  0  0  0
   -5.0393    0.7013    0.0000 C   0  0  0  0  0  0  0  0  0  0  0  0
   -6.0869   -0.3723    0.0000 O   0  0  0  0  0  0  0  0  0  0  0  0
   -3.5858    0.3309    0.0000 C   0  0  0  0  0  0  0  0  0  0  0  0
   -3.1798   -1.1131    0.0000 C   0  0  0  0  0  0  0  0  0  0  0  0
   -4.2273   -2.1867    0.0000 C   0  0  0  0  0  0  0  0  0  0  0  0
   -1.7262   -1.4835    0.0000 C   0  0  0  0  0  0  0  0  0  0  0  0
   -0.6787   -0.4099    0.0000 C   0  0  0  0  0  0  0  0  0  0  0  0
    0.7749   -0.7803    0.0000 C   0  0  0  0  0  0  0  0  0  0  0  0
    1.1809   -2.2243    0.0000 C   0  0  0  0  0  0  0  0  0  0  0  0
    0.1333   -3.2979    0.0000 C   0  0  0  0  0  0  0  0  0  0  0  0
    2.6344   -2.5947    0.0000 C   0  0  0  0  0  0  0  0  0  0  0  0
    3.6820   -1.5211    0.0000 C   0  0  0  0  0  0  0  0  0  0  0  0
    3.2760   -0.0771    0.0000 C   0  0  0  0  0  0  0  0  0  0  0  0
    4.3235    0.9965    0.0000 C   0  0  0  0  0  0  0  0  0  0  0  0
    5.6751    1.6470    0.0000 C   0  0  0  0  0  0  0  0  0  0  0  0
    5.1989   -0.2216    0.0000 C   0  0  0  0  0  0  0  0  0  0  0  0
    3.9175    2.4405    0.0000 C   0  0  0  0  0  0  0  0  0  0  0  0
    2.4640    2.8109    0.0000 C   0  0  0  0  0  0  0  0  0  0  0  0
    1.4164    1.7373    0.0000 C   0  0  0  0  0  0  0  0  0  0  0  0
    1.8224    0.2933    0.0000 C   0  0  0  0  0  0  0  0  0  0  0  0
    0.3689    0.6637    0.0000 C   0  0  0  0  0  0  0  0  0  0  0  0
  1  2  1  0
  2  3  1  0
  3  4  2  0
  3  5  1  0
  5  6  1  0
  6  7  1  6
  6  8  1  0
  8  9  1  0
 10  9  1  6
 10 11  1  0
 11 12  1  0
 11 13  2  0
 13 14  1  0
 15 14  1  6
 15 16  1  0
 16 17  1  0
 16 18  1  0
 16 19  1  0
 19 20  1  0
 20 21  1  0
 21 22  1  0
 22 23  1  6
 22 10  1  0
 22 15  1  0
M  END
>  <identifier>  (435) 
CNP0388947.1

>  <canonical_smiles>  (435) 
COC(=O)C[C@@H](C)CC[C@H]1C(C)=CC[C@H]2C(C)(C)CCC[C@]12C

>  <standard_inchi>  (435) 
InChI=1S/C21H36O2/c1-15(14-19(22)23-6)8-10-17-16(2)9-11-18-20(3,4)12-7-13-21(17,18)5/h9,15,17-18H,7-8,10-14H2,1-6H3/t15-,17-,18-,21+/m0/s1

>  <standard_inchi_key>  (435) 
LWPPDVAQDDYKML-QUJKESNLSA-N

>  <name>  (435) 
1438-55-7

>  <iupac_name>  (435) 
methyl (3~{S})-5-[(1~{S},4~{a}~{S},8~{a}~{S})-2,5,5,8~{a}-tetramethyl-1,4,4~{a},6,7,8-hexahydronaphthalen-1-yl]-3-methyl-pentanoate

>  <annotation_level>  (435) 
5

>  <total_atom_count>  (435) 
59

>  <heavy_atom_count>  (435) 
23

>  <molecular_weight>  (435) 
320.52

>  <exact_molecular_weight>  (435) 
320.27153

>  <molecular_formula>  (435) 
C21H36O2

>  <alogp>  (435) 
5.76

>  <topological_polar_surface_area>  (435) 
26.30

>  <rotatable_bond_count>  (435) 
5

>  <hydrogen_bond_acceptors>  (435) 
2

>  <hydrogen_bond_donors>  (435) 
0

>  <hydrogen_bond_acceptors_lipinski>  (435) 
2

>  <hydrogen_bond_donors_lipinski>  (435) 
0

>  <lipinski_rule_of_five_violations>  (435) 
1

>  <aromatic_rings_count>  (435) 
0

>  <qed_drug_likeliness>  (435) 
0.47

>  <formal_charge>  (435) 
0

>  <fractioncsp3>  (435) 
0.86

>  <number_of_minimal_rings>  (435) 
2

>  <van_der_walls_volume>  (435) 
339.38

>  <contains_sugar>  (435) 
False

>  <contains_ring_sugars>  (435) 
False

>  <contains_linear_sugars>  (435) 
False

>  <murcko_framework>  (435) 
C1=CCC2CCCCC2C1

>  <np_likeness>  (435) 
2.53

>  <chemical_class>  (435) 
Prenol lipids

>  <chemical_sub_class>  (435) 
Diterpenoids

>  <chemical_super_class>  (435) 
Lipids and lipid-like molecules

>  <direct_parent_classification>  (435) 
Diterpenoids

>  <np_classifier_pathway>  (435) 
Terpenoids

>  <np_classifier_superclass>  (435) 
Diterpenoids

>  <np_classifier_class>  (435) 
Labdane diterpenoids

>  <np_classifier_is_glycoside>  (435) 
False

>  <organisms>  (435) 
Ageratina jocotepecana

>  <collections>  (435) 
BIOFACQUIM|Latin America dataset|Super Natural II

>  <dois>  (435) 
10.1021/np500022w

>  <synonyms>  (435) 
(1S|betaS)-1|4|4aalpha|5|6|7|8|8a-Octahydro-beta|2|5|5|8abeta-pentamethyl-1beta-naphthalenepentanoic acid methyl est|methyl (3S)-5-(1S|4aS|8aS)-2|5|5|8a-tetramethyl-1|4|4a|6|7|8-hexahydronaphthalen-1-yl-3-methylpentanoate|Methyl (\u201a\u00e0\u00ed)-(5S 9S 10S 13S)-labd-7-en-15-oate

>  <cas>  (435) 
nan

$$$$

     RDKit          2D

 23 24  0  0  0  0  0  0  0  0999 V2000
   -4.6940    1.5918    0.0000 C   0  0  0  0  0  0  0  0  0  0  0  0
   -3.5653    0.6038    0.0000 C   0  0  0  0  0  0  0  0  0  0  0  0
   -2.1454    1.0873    0.0000 C   0  0  0  0  0  0  0  0  0  0  0  0
   -1.0167    0.0994    0.0000 C   0  0  0  0  0  0  0  0  0  0  0  0
    0.4032    0.5829    0.0000 C   0  0  0  0  0  0  0  0  0  0  0  0
    1.5319   -0.4051    0.0000 C   0  0  0  0  0  0  0  0  0  0  0  0
    0.1120   -0.8886    0.0000 C   0  0  0  0  0  0  0  0  0  0  0  0
    1.2407   -1.8765    0.0000 C   0  0  0  0  0  0  0  0  0  0  0  0
    2.3694   -2.8645    0.0000 C   0  0  0  0  0  0  0  0  0  0  0  0
    3.7893   -2.3810    0.0000 C   0  0  0  0  0  0  0  0  0  0  0  0
    4.0806   -0.9095    0.0000 C   0  0  0  0  0  0  0  0  0  0  0  0
    4.8575    0.3736    0.0000 C   0  0  0  0  0  0  0  0  0  0  0  0
    5.4791   -1.4519    0.0000 C   0  0  0  0  0  0  0  0  0  0  0  0
    2.9519    0.0784    0.0000 C   0  0  0  0  0  0  0  0  0  0  0  0
    3.2431    1.5499    0.0000 C   0  0  0  0  0  0  0  0  0  0  0  0
    2.1144    2.5378    0.0000 C   0  0  0  0  0  0  0  0  0  0  0  0
    0.6945    2.0543    0.0000 C   0  0  0  0  0  0  0  0  0  0  0  0
    0.4649    3.5367    0.0000 C   0  0  0  0  0  0  0  0  0  0  0  0
   -0.8052    2.0856    0.0000 O   0  0  0  0  0  0  0  0  0  0  0  0
   -3.8566   -0.8676    0.0000 C   0  0  0  0  0  0  0  0  0  0  0  0
   -5.2765   -1.3511    0.0000 C   0  0  0  0  0  0  0  0  0  0  0  0
   -6.4052   -0.3632    0.0000 O   0  0  0  0  0  0  0  0  0  0  0  0
   -5.5678   -2.8226    0.0000 O   0  0  0  0  0  0  0  0  0  0  0  0
  2  1  1  6
  2  3  1  0
  3  4  1  0
  5  4  1  1
  5  6  1  0
  6  7  1  1
  6  8  1  0
  8  9  1  0
  9 10  1  0
 10 11  1  0
 11 12  1  0
 11 13  1  0
 11 14  1  0
 14 15  1  1
 15 16  1  0
 16 17  1  0
 17 18  1  1
 17 19  1  0
  2 20  1  0
 20 21  1  0
 21 22  2  0
 21 23  1  0
 17  5  1  0
 14  6  1  0
M  END
>  <identifier>  (436) 
CNP0203806.1

>  <canonical_smiles>  (436) 
C[C@H](CC[C@@H]1[C@@]2(C)CCCC(C)(C)[C@@H]2CC[C@@]1(C)O)CC(=O)O

>  <standard_inchi>  (436) 
InChI=1S/C20H36O3/c1-14(13-17(21)22)7-8-16-19(4)11-6-10-18(2,3)15(19)9-12-20(16,5)23/h14-16,23H,6-13H2,1-5H3,(H,21,22)/t14-,15+,16-,19+,20-/m1/s1

>  <standard_inchi_key>  (436) 
KHCCSRVJJDOANA-VQEGESQYSA-N

>  <name>  (436) 
(3R)-5-[(1R,2R,4aS,8aS)-2-hydroxy-2,5,5,8a-tetramethyl-3,4,4a,6,7,8-hexahydro-1H-naphthalen-1-yl]-3-methylpentanoic acid

>  <iupac_name>  (436) 
(3~{R})-5-[(1~{R},2~{R},4~{a}~{S},8~{a}~{S})-2-hydroxy-2,5,5,8~{a}-tetramethyl-decalin-1-yl]-3-methyl-pentanoic acid

>  <annotation_level>  (436) 
5

>  <total_atom_count>  (436) 
59

>  <heavy_atom_count>  (436) 
23

>  <molecular_weight>  (436) 
324.51

>  <exact_molecular_weight>  (436) 
324.26645

>  <molecular_formula>  (436) 
C20H36O3

>  <alogp>  (436) 
4.87

>  <topological_polar_surface_area>  (436) 
57.53

>  <rotatable_bond_count>  (436) 
5

>  <hydrogen_bond_acceptors>  (436) 
2

>  <hydrogen_bond_donors>  (436) 
2

>  <hydrogen_bond_acceptors_lipinski>  (436) 
2

>  <hydrogen_bond_donors_lipinski>  (436) 
2

>  <lipinski_rule_of_five_violations>  (436) 
0

>  <aromatic_rings_count>  (436) 
0

>  <qed_drug_likeliness>  (436) 
0.76

>  <formal_charge>  (436) 
0

>  <fractioncsp3>  (436) 
0.95

>  <number_of_minimal_rings>  (436) 
2

>  <van_der_walls_volume>  (436) 
336.78

>  <contains_sugar>  (436) 
False

>  <contains_ring_sugars>  (436) 
False

>  <contains_linear_sugars>  (436) 
False

>  <murcko_framework>  (436) 
C1CCC2CCCCC2C1

>  <np_likeness>  (436) 
2.57

>  <chemical_class>  (436) 
Prenol lipids

>  <chemical_sub_class>  (436) 
Diterpenoids

>  <chemical_super_class>  (436) 
Lipids and lipid-like molecules

>  <direct_parent_classification>  (436) 
Diterpenoids

>  <np_classifier_pathway>  (436) 
Terpenoids

>  <np_classifier_superclass>  (436) 
Diterpenoids

>  <np_classifier_class>  (436) 
Labdane diterpenoids

>  <np_classifier_is_glycoside>  (436) 
False

>  <organisms>  (436) 
Ageratina jocotepecana|Alnus japonica|Amaranthus hypochondriacus|Amphilophis odorata|Berberis repens|Croton laccifer|Dendrilla cavernosa|Diphasiastrum thyoides|Euphorbia myrsinites|Fomes robiniae|Gnaphalium undulatum|Gymnothorax javanicus|Helicteres angustifolia|Hippeastrum papilio|Hygrophorus chrysodon|Ips confusus|Limnocharis flava|Millettia ferruginea|Olea cunninghamii|Phaeodactylum tricornutum|Polyporus dryadeus|Ptarmica ptarmicifolia|Sedum litoreum|Senecio viscosus|Streptomyces amphibiosporus|Teucrium asiaticum|Thermopsis dolichocarpa|Vicia amurensis|Wyethia mollis|Zanthoxylum fraxineum

>  <collections>  (436) 
BIOFACQUIM|CMAUP (cCollective molecular activities of useful plants)|Latin America dataset|NPASS|Super Natural II|ZINC NP

>  <dois>  (436) 
10.1021/np500022w

>  <synonyms>  (436) 
CHEMBL3233988|(+)-(5S 8R 9R 10S 13R)-8-hydroxylabdan-15-oic acid

>  <cas>  (436) 
nan

$$$$

     RDKit          2D

 42 47  0  0  0  0  0  0  0  0999 V2000
   -0.5583   -5.8015    0.0000 C   0  0  0  0  0  0  0  0  0  0  0  0
   -0.2364   -4.3365    0.0000 O   0  0  0  0  0  0  0  0  0  0  0  0
   -1.3442   -3.3251    0.0000 C   0  0  0  0  0  0  0  0  0  0  0  0
   -2.7739   -3.7788    0.0000 C   0  0  0  0  0  0  0  0  0  0  0  0
   -3.8817   -2.7675    0.0000 C   0  0  0  0  0  0  0  0  0  0  0  0
   -5.3115   -3.2212    0.0000 O   0  0  0  0  0  0  0  0  0  0  0  0
   -5.6334   -4.6863    0.0000 C   0  0  0  0  0  0  0  0  0  0  0  0
   -3.5598   -1.3025    0.0000 C   0  0  0  0  0  0  0  0  0  0  0  0
   -4.6676   -0.2911    0.0000 C   0  0  0  0  0  0  0  0  0  0  0  0
   -6.0973   -0.7449    0.0000 O   0  0  0  0  0  0  0  0  0  0  0  0
   -4.3457    1.1739    0.0000 C   0  0  0  0  0  0  0  0  0  0  0  0
   -2.9159    1.6276    0.0000 C   0  0  0  0  0  0  0  0  0  0  0  0
   -2.5940    3.0927    0.0000 C   0  0  0  0  0  0  0  0  0  0  0  0
   -3.7018    4.1040    0.0000 C   0  0  0  0  0  0  0  0  0  0  0  0
   -3.3798    5.5690    0.0000 C   0  0  0  0  0  0  0  0  0  0  0  0
   -5.1315    3.6503    0.0000 O   0  0  0  0  0  0  0  0  0  0  0  0
   -5.4535    2.1852    0.0000 C   0  0  0  0  0  0  0  0  0  0  0  0
   -6.8832    1.7315    0.0000 C   0  0  0  0  0  0  0  0  0  0  0  0
   -1.8081    0.6163    0.0000 C   0  0  0  0  0  0  0  0  0  0  0  0
   -1.0045    1.8829    0.0000 O   0  0  0  0  0  0  0  0  0  0  0  0
   -1.6996    3.2121    0.0000 C   0  0  0  0  0  0  0  0  0  0  0  0
   -0.4212    0.0448    0.0000 C   0  0  0  0  0  0  0  0  0  0  0  0
   -0.2227   -1.4420    0.0000 C   0  0  0  0  0  0  0  0  0  0  0  0
    1.1642   -2.0134    0.0000 C   0  0  0  0  0  0  0  0  0  0  0  0
    2.3525   -1.0981    0.0000 C   0  0  0  0  0  0  0  0  0  0  0  0
    3.7394   -1.6695    0.0000 C   0  0  0  0  0  0  0  0  0  0  0  0
    4.9277   -0.7541    0.0000 C   0  0  0  0  0  0  0  0  0  0  0  0
    6.3146   -1.3256    0.0000 C   0  0  0  0  0  0  0  0  0  0  0  0
    7.5030   -0.4102    0.0000 C   0  0  0  0  0  0  0  0  0  0  0  0
    8.9327    0.0435    0.0000 C   0  0  0  0  0  0  0  0  0  0  0  0
    8.1981   -1.7395    0.0000 O   0  0  0  0  0  0  0  0  0  0  0  0
    7.3044    1.0766    0.0000 C   0  0  0  0  0  0  0  0  0  0  0  0
    5.9175    1.6480    0.0000 C   0  0  0  0  0  0  0  0  0  0  0  0
    5.7190    3.1348    0.0000 O   0  0  0  0  0  0  0  0  0  0  0  0
    4.7292    0.7327    0.0000 C   0  0  0  0  0  0  0  0  0  0  0  0
    3.3423    1.3041    0.0000 C   0  0  0  0  0  0  0  0  0  0  0  0
    3.1438    2.7909    0.0000 O   0  0  0  0  0  0  0  0  0  0  0  0
    2.1540    0.3887    0.0000 C   0  0  0  0  0  0  0  0  0  0  0  0
    0.7671    0.9602    0.0000 C   0  0  0  0  0  0  0  0  0  0  0  0
    0.5685    2.4470    0.0000 O   0  0  0  0  0  0  0  0  0  0  0  0
   -2.1301   -0.8488    0.0000 C   0  0  0  0  0  0  0  0  0  0  0  0
   -1.0223   -1.8601    0.0000 C   0  0  0  0  0  0  0  0  0  0  0  0
  1  2  1  0
  2  3  1  0
  3  4  2  0
  4  5  1  0
  5  6  1  0
  6  7  1  0
  5  8  2  0
  8  9  1  0
  9 10  2  0
  9 11  1  0
 11 12  2  0
 12 13  1  0
 13 14  1  0
 14 15  1  1
 14 16  1  0
 16 17  1  0
 17 18  1  1
 12 19  1  0
 19 20  1  0
 20 21  1  0
 19 22  1  0
 22 23  2  0
 23 24  1  0
 24 25  2  0
 25 26  1  0
 26 27  2  0
 27 28  1  0
 28 29  1  0
 29 30  1  6
 29 31  1  0
 29 32  1  0
 32 33  1  0
 33 34  2  0
 33 35  1  0
 35 36  2  0
 36 37  1  0
 36 38  1  0
 38 39  2  0
 39 40  1  0
 19 41  1  0
 41 42  2  0
 42  3  1  0
 41  8  1  0
 17 11  1  0
 39 22  1  0
 38 25  1  0
 35 27  1  0
M  END
>  <identifier>  (437) 
CNP0436825.1

>  <canonical_smiles>  (437) 
COC1=CC(OC)=C2C(=O)C3=C(C[C@H](C)O[C@@H]3C)C(OC)(C3=CC=C4C=C5C[C@](C)(O)CC(=O)C5=C(O)C4=C3O)C2=C1

>  <standard_inchi>  (437) 
InChI=1S/C33H34O9/c1-15-9-21-25(16(2)42-15)30(36)28-22(11-19(39-4)12-24(28)40-5)33(21,41-6)20-8-7-17-10-18-13-32(3,38)14-23(34)26(18)31(37)27(17)29(20)35/h7-8,10-12,15-16,35,37-38H,9,13-14H2,1-6H3/t15-,16+,32-,33?/m0/s1

>  <standard_inchi_key>  (437) 
DYUXKCKATXCWCU-YQRISDPOSA-N

>  <name>  (437) 
nan

>  <iupac_name>  (437) 
(1~{R},3~{S})-5,7,9-trimethoxy-1,3-dimethyl-5-[(6~{S})-1,6,9-trihydroxy-6-methyl-8-oxo-5,7-dihydroanthracen-2-yl]-3,4-dihydro-1~{H}-benzo[g]isochromen-10-one

>  <annotation_level>  (437) 
5

>  <total_atom_count>  (437) 
76

>  <heavy_atom_count>  (437) 
42

>  <molecular_weight>  (437) 
574.63

>  <exact_molecular_weight>  (437) 
574.22028

>  <molecular_formula>  (437) 
C33H34O9

>  <alogp>  (437) 
4.73

>  <topological_polar_surface_area>  (437) 
131.75

>  <rotatable_bond_count>  (437) 
4

>  <hydrogen_bond_acceptors>  (437) 
9

>  <hydrogen_bond_donors>  (437) 
3

>  <hydrogen_bond_acceptors_lipinski>  (437) 
9

>  <hydrogen_bond_donors_lipinski>  (437) 
3

>  <lipinski_rule_of_five_violations>  (437) 
1

>  <aromatic_rings_count>  (437) 
3

>  <qed_drug_likeliness>  (437) 
0.40

>  <formal_charge>  (437) 
0

>  <fractioncsp3>  (437) 
0.39

>  <number_of_minimal_rings>  (437) 
6

>  <van_der_walls_volume>  (437) 
499.65

>  <contains_sugar>  (437) 
False

>  <contains_ring_sugars>  (437) 
False

>  <contains_linear_sugars>  (437) 
False

>  <murcko_framework>  (437) 
O1CC2=C(CC1)C(c3ccc4cc5c(cc4c3)CCCC5)c6ccccc6C2

>  <np_likeness>  (437) 
1.65

>  <chemical_class>  (437) 
Naphthopyrans

>  <chemical_sub_class>  (437) 
Naphthopyranones

>  <chemical_super_class>  (437) 
Organoheterocyclic compounds

>  <direct_parent_classification>  (437) 
Naphthopyranones

>  <np_classifier_pathway>  (437) 
Polyketides

>  <np_classifier_superclass>  (437) 
Polycyclic aromatic polyketides

>  <np_classifier_class>  (437) 
Anthraquinones and anthrones

>  <np_classifier_is_glycoside>  (437) 
False

>  <organisms>  (437) 
Karwinskia parvifolia

>  <collections>  (437) 
BIOFACQUIM|Latin America dataset

>  <dois>  (437) 
10.1021/np500430q

>  <synonyms>  (437) 
Karwinaphthopyranone A1

>  <cas>  (437) 
nan

$$$$

     RDKit          2D

 40 45  0  0  0  0  0  0  0  0999 V2000
    5.6149   -4.9833    0.0000 C   0  0  0  0  0  0  0  0  0  0  0  0
    5.3043   -3.5158    0.0000 O   0  0  0  0  0  0  0  0  0  0  0  0
    3.8781   -3.0510    0.0000 C   0  0  0  0  0  0  0  0  0  0  0  0
    2.7625   -4.0538    0.0000 C   0  0  0  0  0  0  0  0  0  0  0  0
    1.3364   -3.5890    0.0000 C   0  0  0  0  0  0  0  0  0  0  0  0
    1.0258   -2.1215    0.0000 C   0  0  0  0  0  0  0  0  0  0  0  0
    2.1413   -1.1188    0.0000 C   0  0  0  0  0  0  0  0  0  0  0  0
    3.5675   -1.5835    0.0000 C   0  0  0  0  0  0  0  0  0  0  0  0
    4.6831   -0.5808    0.0000 C   0  0  0  0  0  0  0  0  0  0  0  0
    6.1093   -1.0456    0.0000 O   0  0  0  0  0  0  0  0  0  0  0  0
    4.3725    0.8867    0.0000 C   0  0  0  0  0  0  0  0  0  0  0  0
    2.9463    1.3514    0.0000 C   0  0  0  0  0  0  0  0  0  0  0  0
    2.6357    2.8189    0.0000 C   0  0  0  0  0  0  0  0  0  0  0  0
    3.7513    3.8217    0.0000 C   0  0  0  0  0  0  0  0  0  0  0  0
    3.4407    5.2891    0.0000 C   0  0  0  0  0  0  0  0  0  0  0  0
    5.1775    3.3569    0.0000 O   0  0  0  0  0  0  0  0  0  0  0  0
    5.4881    1.8894    0.0000 C   0  0  0  0  0  0  0  0  0  0  0  0
    6.9143    1.4247    0.0000 C   0  0  0  0  0  0  0  0  0  0  0  0
    1.8307    0.3487    0.0000 C   0  0  0  0  0  0  0  0  0  0  0  0
    1.0370    1.6215    0.0000 O   0  0  0  0  0  0  0  0  0  0  0  0
    1.7423    2.9453    0.0000 C   0  0  0  0  0  0  0  0  0  0  0  0
    0.4395   -0.2120    0.0000 C   0  0  0  0  0  0  0  0  0  0  0  0
    0.2294   -1.6972    0.0000 C   0  0  0  0  0  0  0  0  0  0  0  0
   -1.1618   -2.2579    0.0000 C   0  0  0  0  0  0  0  0  0  0  0  0
   -2.3430   -1.3334    0.0000 C   0  0  0  0  0  0  0  0  0  0  0  0
   -3.7343   -1.8941    0.0000 C   0  0  0  0  0  0  0  0  0  0  0  0
   -4.9155   -0.9696    0.0000 C   0  0  0  0  0  0  0  0  0  0  0  0
   -6.3068   -1.5303    0.0000 C   0  0  0  0  0  0  0  0  0  0  0  0
   -7.4880   -0.6058    0.0000 C   0  0  0  0  0  0  0  0  0  0  0  0
   -8.9142   -0.1411    0.0000 C   0  0  0  0  0  0  0  0  0  0  0  0
   -8.1933   -1.9296    0.0000 O   0  0  0  0  0  0  0  0  0  0  0  0
   -7.2780    0.8794    0.0000 C   0  0  0  0  0  0  0  0  0  0  0  0
   -5.8867    1.4401    0.0000 C   0  0  0  0  0  0  0  0  0  0  0  0
   -5.6767    2.9253    0.0000 O   0  0  0  0  0  0  0  0  0  0  0  0
   -4.7055    0.5156    0.0000 C   0  0  0  0  0  0  0  0  0  0  0  0
   -3.3142    1.0763    0.0000 C   0  0  0  0  0  0  0  0  0  0  0  0
   -3.1042    2.5615    0.0000 O   0  0  0  0  0  0  0  0  0  0  0  0
   -2.1330    0.1518    0.0000 C   0  0  0  0  0  0  0  0  0  0  0  0
   -0.7417    0.7125    0.0000 C   0  0  0  0  0  0  0  0  0  0  0  0
   -0.5317    2.1977    0.0000 O   0  0  0  0  0  0  0  0  0  0  0  0
  1  2  1  0
  2  3  1  0
  3  4  2  0
  4  5  1  0
  5  6  2  0
  6  7  1  0
  7  8  2  0
  8  9  1  0
  9 10  2  0
  9 11  1  0
 11 12  2  0
 12 13  1  0
 13 14  1  0
 14 15  1  6
 14 16  1  0
 16 17  1  0
 17 18  1  6
 12 19  1  0
 19 20  1  0
 20 21  1  0
 19 22  1  0
 22 23  2  0
 23 24  1  0
 24 25  2  0
 25 26  1  0
 26 27  2  0
 27 28  1  0
 28 29  1  0
 29 30  1  1
 29 31  1  0
 29 32  1  0
 32 33  1  0
 33 34  2  0
 33 35  1  0
 35 36  2  0
 36 37  1  0
 36 38  1  0
 38 39  2  0
 39 40  1  0
  8  3  1  0
 17 11  1  0
 39 22  1  0
 19  7  1  0
 38 25  1  0
 35 27  1  0
M  END
>  <identifier>  (438) 
CNP0078936.1

>  <canonical_smiles>  (438) 
COC1=CC=CC2=C1C(=O)C1=C(C[C@H](C)O[C@@H]1C)C2(OC)C1=CC=C2C=C3C[C@](C)(O)CC(=O)C3=C(O)C2=C1O

>  <standard_inchi>  (438) 
InChI=1S/C32H32O8/c1-15-11-21-24(16(2)40-15)29(35)27-19(7-6-8-23(27)38-4)32(21,39-5)20-10-9-17-12-18-13-31(3,37)14-22(33)25(18)30(36)26(17)28(20)34/h6-10,12,15-16,34,36-37H,11,13-14H2,1-5H3/t15-,16+,31-,32?/m0/s1

>  <standard_inchi_key>  (438) 
HCQUPSKUOXQBMU-GLDMDUAVSA-N

>  <name>  (438) 
(1R,3S)-5,9-dimethoxy-1,3-dimethyl-5-[(6S)-1,6,9-trihydroxy-6-methyl-8-oxo-5,7-dihydroanthracen-2-yl]-3,4-dihydro-1H-benzo[g]isochromen-10-one

>  <iupac_name>  (438) 
(1~{R},3~{S})-5,9-dimethoxy-1,3-dimethyl-5-[(6~{S})-1,6,9-trihydroxy-6-methyl-8-oxo-5,7-dihydroanthracen-2-yl]-3,4-dihydro-1~{H}-benzo[g]isochromen-10-one

>  <annotation_level>  (438) 
5

>  <total_atom_count>  (438) 
72

>  <heavy_atom_count>  (438) 
40

>  <molecular_weight>  (438) 
544.6

>  <exact_molecular_weight>  (438) 
544.20972

>  <molecular_formula>  (438) 
C32H32O8

>  <alogp>  (438) 
4.72

>  <topological_polar_surface_area>  (438) 
122.52

>  <rotatable_bond_count>  (438) 
3

>  <hydrogen_bond_acceptors>  (438) 
8

>  <hydrogen_bond_donors>  (438) 
3

>  <hydrogen_bond_acceptors_lipinski>  (438) 
8

>  <hydrogen_bond_donors_lipinski>  (438) 
3

>  <lipinski_rule_of_five_violations>  (438) 
1

>  <aromatic_rings_count>  (438) 
3

>  <qed_drug_likeliness>  (438) 
0.43

>  <formal_charge>  (438) 
0

>  <fractioncsp3>  (438) 
0.38

>  <number_of_minimal_rings>  (438) 
6

>  <van_der_walls_volume>  (438) 
473.46

>  <contains_sugar>  (438) 
False

>  <contains_ring_sugars>  (438) 
False

>  <contains_linear_sugars>  (438) 
False

>  <murcko_framework>  (438) 
O1CC2=C(CC1)C(c3ccc4cc5c(cc4c3)CCCC5)c6ccccc6C2

>  <np_likeness>  (438) 
1.64

>  <chemical_class>  (438) 
Naphthopyrans

>  <chemical_sub_class>  (438) 
Naphthopyranones

>  <chemical_super_class>  (438) 
Organoheterocyclic compounds

>  <direct_parent_classification>  (438) 
Naphthopyranones

>  <np_classifier_pathway>  (438) 
Polyketides

>  <np_classifier_superclass>  (438) 
Polycyclic aromatic polyketides

>  <np_classifier_class>  (438) 
Anthraquinones and anthrones

>  <np_classifier_is_glycoside>  (438) 
False

>  <organisms>  (438) 
Karwinskia parvifolia

>  <collections>  (438) 
BIOFACQUIM|CMAUP (cCollective molecular activities of useful plants)|Latin America dataset

>  <dois>  (438) 
10.1021/np500430q

>  <synonyms>  (438) 
CHEMBL3355660|Karwinaphthopyranone B1

>  <cas>  (438) 
nan

$$$$

     RDKit          2D

 42 47  0  0  0  0  0  0  0  0999 V2000
   -0.3623   -5.7500    0.0000 C   0  0  0  0  0  0  0  0  0  0  0  0
   -0.0642   -4.2799    0.0000 O   0  0  0  0  0  0  0  0  0  0  0  0
   -1.1884   -3.2868    0.0000 C   0  0  0  0  0  0  0  0  0  0  0  0
   -2.6105   -3.7637    0.0000 C   0  0  0  0  0  0  0  0  0  0  0  0
   -3.7346   -2.7706    0.0000 C   0  0  0  0  0  0  0  0  0  0  0  0
   -5.1568   -3.2475    0.0000 O   0  0  0  0  0  0  0  0  0  0  0  0
   -5.4548   -4.7176    0.0000 C   0  0  0  0  0  0  0  0  0  0  0  0
   -3.4366   -1.3005    0.0000 C   0  0  0  0  0  0  0  0  0  0  0  0
   -4.5607   -0.3073    0.0000 C   0  0  0  0  0  0  0  0  0  0  0  0
   -5.9829   -0.7843    0.0000 O   0  0  0  0  0  0  0  0  0  0  0  0
   -4.2627    1.1628    0.0000 C   0  0  0  0  0  0  0  0  0  0  0  0
   -2.8406    1.6397    0.0000 C   0  0  0  0  0  0  0  0  0  0  0  0
   -2.5425    3.1098    0.0000 C   0  0  0  0  0  0  0  0  0  0  0  0
   -3.6667    4.1029    0.0000 C   0  0  0  0  0  0  0  0  0  0  0  0
   -3.3686    5.5730    0.0000 C   0  0  0  0  0  0  0  0  0  0  0  0
   -5.0888    3.6260    0.0000 O   0  0  0  0  0  0  0  0  0  0  0  0
   -5.3868    2.1559    0.0000 C   0  0  0  0  0  0  0  0  0  0  0  0
   -6.8090    1.6790    0.0000 C   0  0  0  0  0  0  0  0  0  0  0  0
   -1.7164    0.6466    0.0000 C   0  0  0  0  0  0  0  0  0  0  0  0
   -0.9336    1.9261    0.0000 O   0  0  0  0  0  0  0  0  0  0  0  0
   -1.6502    3.2438    0.0000 C   0  0  0  0  0  0  0  0  0  0  0  0
   -0.3204    0.0978    0.0000 C   0  0  0  0  0  0  0  0  0  0  0  0
   -0.0977   -1.3856    0.0000 C   0  0  0  0  0  0  0  0  0  0  0  0
    1.2983   -1.9344    0.0000 C   0  0  0  0  0  0  0  0  0  0  0  0
    2.4716   -0.9998    0.0000 C   0  0  0  0  0  0  0  0  0  0  0  0
    3.8676   -1.5486    0.0000 C   0  0  0  0  0  0  0  0  0  0  0  0
    4.0904   -3.0319    0.0000 O   0  0  0  0  0  0  0  0  0  0  0  0
    5.0409   -0.6140    0.0000 C   0  0  0  0  0  0  0  0  0  0  0  0
    6.4369   -1.1628    0.0000 C   0  0  0  0  0  0  0  0  0  0  0  0
    7.6101   -0.2282    0.0000 C   0  0  0  0  0  0  0  0  0  0  0  0
    9.0061   -0.7769    0.0000 C   0  0  0  0  0  0  0  0  0  0  0  0
    7.3874    1.2552    0.0000 C   0  0  0  0  0  0  0  0  0  0  0  0
    5.9914    1.8040    0.0000 C   0  0  0  0  0  0  0  0  0  0  0  0
    5.7686    3.2874    0.0000 O   0  0  0  0  0  0  0  0  0  0  0  0
    4.8181    0.8694    0.0000 C   0  0  0  0  0  0  0  0  0  0  0  0
    3.4221    1.4182    0.0000 C   0  0  0  0  0  0  0  0  0  0  0  0
    3.1994    2.9015    0.0000 O   0  0  0  0  0  0  0  0  0  0  0  0
    2.2488    0.4836    0.0000 C   0  0  0  0  0  0  0  0  0  0  0  0
    0.8528    1.0324    0.0000 C   0  0  0  0  0  0  0  0  0  0  0  0
    0.6301    2.5157    0.0000 O   0  0  0  0  0  0  0  0  0  0  0  0
   -2.0145   -0.8235    0.0000 C   0  0  0  0  0  0  0  0  0  0  0  0
   -0.8903   -1.8167    0.0000 C   0  0  0  0  0  0  0  0  0  0  0  0
  1  2  1  0
  2  3  1  0
  3  4  2  0
  4  5  1  0
  5  6  1  0
  6  7  1  0
  5  8  2  0
  8  9  1  0
  9 10  2  0
  9 11  1  0
 11 12  2  0
 12 13  1  0
 13 14  1  0
 14 15  1  1
 14 16  1  0
 16 17  1  0
 17 18  1  1
 12 19  1  0
 19 20  1  0
 20 21  1  0
 19 22  1  0
 22 23  2  0
 23 24  1  0
 24 25  2  0
 25 26  1  0
 26 27  2  0
 26 28  1  0
 28 29  2  0
 29 30  1  0
 30 31  1  0
 30 32  2  0
 32 33  1  0
 33 34  1  0
 33 35  2  0
 35 36  1  0
 36 37  2  0
 36 38  1  0
 38 39  2  0
 39 40  1  0
 19 41  1  0
 41 42  2  0
 42  3  1  0
 41  8  1  0
 17 11  1  0
 39 22  1  0
 38 25  1  0
 35 28  1  0
M  END
>  <identifier>  (439) 
CNP0436852.1

>  <canonical_smiles>  (439) 
COC1=CC(OC)=C2C(=O)C3=C(C[C@H](C)O[C@@H]3C)C(OC)(C3=CC=C4C(=O)C5=CC(C)=CC(O)=C5C(=O)C4=C3O)C2=C1

>  <standard_inchi>  (439) 
InChI=1S/C33H30O9/c1-14-9-19-26(23(34)10-14)32(38)27-18(29(19)35)7-8-20(30(27)36)33(41-6)21-11-15(2)42-16(3)25(21)31(37)28-22(33)12-17(39-4)13-24(28)40-5/h7-10,12-13,15-16,34,36H,11H2,1-6H3/t15-,16+,33?/m0/s1

>  <standard_inchi_key>  (439) 
XWGVAZYMLDVIDS-FOCZCJQRSA-N

>  <name>  (439) 
nan

>  <iupac_name>  (439) 
1,8-dihydroxy-6-methyl-2-[(1~{R},3~{S})-5,7,9-trimethoxy-1,3-dimethyl-10-oxo-3,4-dihydro-1~{H}-benzo[g]isochromen-5-yl]anthracene-9,10-dione

>  <annotation_level>  (439) 
5

>  <total_atom_count>  (439) 
72

>  <heavy_atom_count>  (439) 
42

>  <molecular_weight>  (439) 
570.59

>  <exact_molecular_weight>  (439) 
570.18898

>  <molecular_formula>  (439) 
C33H30O9

>  <alogp>  (439) 
4.78

>  <topological_polar_surface_area>  (439) 
128.59

>  <rotatable_bond_count>  (439) 
4

>  <hydrogen_bond_acceptors>  (439) 
9

>  <hydrogen_bond_donors>  (439) 
2

>  <hydrogen_bond_acceptors_lipinski>  (439) 
9

>  <hydrogen_bond_donors_lipinski>  (439) 
2

>  <lipinski_rule_of_five_violations>  (439) 
1

>  <aromatic_rings_count>  (439) 
3

>  <qed_drug_likeliness>  (439) 
0.36

>  <formal_charge>  (439) 
0

>  <fractioncsp3>  (439) 
0.30

>  <number_of_minimal_rings>  (439) 
6

>  <van_der_walls_volume>  (439) 
490.28

>  <contains_sugar>  (439) 
False

>  <contains_ring_sugars>  (439) 
False

>  <contains_linear_sugars>  (439) 
False

>  <murcko_framework>  (439) 
O1CC2=C(CC1)C(c3ccc4c(c3)Cc5ccccc5C4)c6ccccc6C2

>  <np_likeness>  (439) 
1.45

>  <chemical_class>  (439) 
Anthracenes

>  <chemical_sub_class>  (439) 
Anthraquinones

>  <chemical_super_class>  (439) 
Benzenoids

>  <direct_parent_classification>  (439) 
Anthraquinones

>  <np_classifier_pathway>  (439) 
Polyketides

>  <np_classifier_superclass>  (439) 
Polycyclic aromatic polyketides

>  <np_classifier_class>  (439) 
Anthraquinones and anthrones

>  <np_classifier_is_glycoside>  (439) 
False

>  <organisms>  (439) 
Karwinskia parvifolia

>  <collections>  (439) 
BIOFACQUIM|Latin America dataset

>  <dois>  (439) 
10.1021/np500430q

>  <synonyms>  (439) 
Karwinaphthopyranone A2

>  <cas>  (439) 
nan

$$$$

     RDKit          2D

 24 28  0  0  0  0  0  0  0  0999 V2000
   -4.7636    1.9990    0.0000 O   0  0  0  0  0  0  0  0  0  0  0  0
   -3.3184    1.5971    0.0000 C   0  0  0  0  0  0  0  0  0  0  0  0
   -2.2478    2.6477    0.0000 C   0  0  0  0  0  0  0  0  0  0  0  0
   -0.8026    2.2457    0.0000 C   0  0  0  0  0  0  0  0  0  0  0  0
   -0.4281    0.7932    0.0000 C   0  0  0  0  0  0  0  0  0  0  0  0
   -0.0536   -0.6593    0.0000 O   0  0  0  0  0  0  0  0  0  0  0  0
    1.3915   -1.0612    0.0000 C   0  0  0  0  0  0  0  0  0  0  0  0
    1.7660   -2.5137    0.0000 C   0  0  0  0  0  0  0  0  0  0  0  0
    3.2112   -2.9156    0.0000 C   0  0  0  0  0  0  0  0  0  0  0  0
    4.2818   -1.8650    0.0000 C   0  0  0  0  0  0  0  0  0  0  0  0
    3.9073   -0.4125    0.0000 C   0  0  0  0  0  0  0  0  0  0  0  0
    4.9780    0.6380    0.0000 C   0  0  0  0  0  0  0  0  0  0  0  0
    4.6035    2.0905    0.0000 C   0  0  0  0  0  0  0  0  0  0  0  0
    3.1583    2.4925    0.0000 C   0  0  0  0  0  0  0  0  0  0  0  0
    2.0877    1.4419    0.0000 C   0  0  0  0  0  0  0  0  0  0  0  0
    2.4622   -0.0106    0.0000 C   0  0  0  0  0  0  0  0  0  0  0  0
    0.6425    1.8438    0.0000 O   0  0  0  0  0  0  0  0  0  0  0  0
   -1.4988   -0.2573    0.0000 C   0  0  0  0  0  0  0  0  0  0  0  0
   -1.1243   -1.7098    0.0000 C   0  0  0  0  0  0  0  0  0  0  0  0
   -2.1949   -2.7604    0.0000 C   0  0  0  0  0  0  0  0  0  0  0  0
   -3.6401   -2.3585    0.0000 C   0  0  0  0  0  0  0  0  0  0  0  0
   -4.0146   -0.9060    0.0000 C   0  0  0  0  0  0  0  0  0  0  0  0
   -5.4597   -0.5041    0.0000 O   0  0  0  0  0  0  0  0  0  0  0  0
   -2.9439    0.1446    0.0000 C   0  0  0  0  0  0  0  0  0  0  0  0
  1  2  2  0
  2  3  1  0
  3  4  1  0
  4  5  1  0
  5  6  1  0
  6  7  1  0
  7  8  2  0
  8  9  1  0
  9 10  2  0
 10 11  1  0
 11 12  2  0
 12 13  1  0
 13 14  2  0
 14 15  1  0
 15 16  2  0
 15 17  1  0
  5 18  1  0
 18 19  2  0
 19 20  1  0
 20 21  2  0
 21 22  1  0
 22 23  1  0
 22 24  2  0
 24  2  1  0
 17  5  1  0
 24 18  1  0
 16  7  1  0
 16 11  1  0
M  END
>  <identifier>  (440) 
CNP0261604.0

>  <canonical_smiles>  (440) 
O=C1CCC2(OC3=CC=CC4=CC=CC(=C34)O2)C2=CC=CC(O)=C12

>  <standard_inchi>  (440) 
InChI=1S/C20H14O4/c21-14-7-3-6-13-19(14)15(22)10-11-20(13)23-16-8-1-4-12-5-2-9-17(24-20)18(12)16/h1-9,21H,10-11H2

>  <standard_inchi_key>  (440) 
BGMMZNMDIABGHL-UHFFFAOYSA-N

>  <name>  (440) 
palmarumycin CP2

>  <iupac_name>  (440) 
8'-hydroxyspiro[2,4-dioxatricyclo[7.3.1.0^{5,13}]trideca-1(12),5(13),6,8,10-pentaene-3,4'-tetralin]-1'-one

>  <annotation_level>  (440) 
5

>  <total_atom_count>  (440) 
38

>  <heavy_atom_count>  (440) 
24

>  <molecular_weight>  (440) 
318.33

>  <exact_molecular_weight>  (440) 
318.08921

>  <molecular_formula>  (440) 
C20H14O4

>  <alogp>  (440) 
4.15

>  <topological_polar_surface_area>  (440) 
55.76

>  <rotatable_bond_count>  (440) 
0

>  <hydrogen_bond_acceptors>  (440) 
4

>  <hydrogen_bond_donors>  (440) 
1

>  <hydrogen_bond_acceptors_lipinski>  (440) 
4

>  <hydrogen_bond_donors_lipinski>  (440) 
1

>  <lipinski_rule_of_five_violations>  (440) 
0

>  <aromatic_rings_count>  (440) 
3

>  <qed_drug_likeliness>  (440) 
0.68

>  <formal_charge>  (440) 
0

>  <fractioncsp3>  (440) 
0.15

>  <number_of_minimal_rings>  (440) 
5

>  <van_der_walls_volume>  (440) 
269.61

>  <contains_sugar>  (440) 
False

>  <contains_ring_sugars>  (440) 
False

>  <contains_linear_sugars>  (440) 
False

>  <murcko_framework>  (440) 
O1c2cccc3cccc(OC14c5ccccc5CCC4)c23

>  <np_likeness>  (440) 
1.42

>  <chemical_class>  (440) 
Tetralins

>  <chemical_sub_class>  (440) 
Tetralins

>  <chemical_super_class>  (440) 
Benzenoids

>  <direct_parent_classification>  (440) 
Tetralins

>  <np_classifier_pathway>  (440) 
Polyketides

>  <np_classifier_superclass>  (440) 
Naphthalenes

>  <np_classifier_class>  (440) 
Spirodioxynaphthalenes

>  <np_classifier_is_glycoside>  (440) 
False

>  <organisms>  (440) 
Coniothyrium palmarum|Edenia gomezpompae|Edenia sp.

>  <collections>  (440) 
BIOFACQUIM|EMNPD|KNApSaCK|Latin America dataset|NPASS|NPAtlas|Super Natural II|UNPD (Universal Natural Products Database)

>  <dois>  (440) 
10.1002/jlac.199419941107|10.1021/jf500965k

>  <synonyms>  (440) 
8-hydroxyspiro2|3-dihydronaphthalene-4|3'-2|4-dioxatricyclo7.3.1.05|13trideca-1(12)|5|7|9(13)|10-pentaene-1-one|CHEMBL511169|SCHEMBL10000180|CHEBI:199493|Palmarumycin CP2

>  <cas>  (440) 
nan

$$$$

     RDKit          2D

 39 44  0  0  0  0  0  0  0  0999 V2000
    5.4711   -4.9330    0.0000 C   0  0  0  0  0  0  0  0  0  0  0  0
    5.1407   -3.4698    0.0000 O   0  0  0  0  0  0  0  0  0  0  0  0
    3.7083   -3.0244    0.0000 C   0  0  0  0  0  0  0  0  0  0  0  0
    2.6064   -4.0421    0.0000 C   0  0  0  0  0  0  0  0  0  0  0  0
    1.1741   -3.5967    0.0000 C   0  0  0  0  0  0  0  0  0  0  0  0
    0.8437   -2.1335    0.0000 C   0  0  0  0  0  0  0  0  0  0  0  0
    1.9456   -1.1158    0.0000 C   0  0  0  0  0  0  0  0  0  0  0  0
    3.3779   -1.5612    0.0000 C   0  0  0  0  0  0  0  0  0  0  0  0
    4.4799   -0.5435    0.0000 C   0  0  0  0  0  0  0  0  0  0  0  0
    5.9122   -0.9890    0.0000 O   0  0  0  0  0  0  0  0  0  0  0  0
    4.1495    0.9196    0.0000 C   0  0  0  0  0  0  0  0  0  0  0  0
    2.7171    1.3651    0.0000 C   0  0  0  0  0  0  0  0  0  0  0  0
    2.3867    2.8282    0.0000 C   0  0  0  0  0  0  0  0  0  0  0  0
    3.4887    3.8460    0.0000 C   0  0  0  0  0  0  0  0  0  0  0  0
    3.1583    5.3091    0.0000 C   0  0  0  0  0  0  0  0  0  0  0  0
    4.9210    3.4005    0.0000 O   0  0  0  0  0  0  0  0  0  0  0  0
    5.2514    1.9373    0.0000 C   0  0  0  0  0  0  0  0  0  0  0  0
    6.6837    1.4919    0.0000 C   0  0  0  0  0  0  0  0  0  0  0  0
    1.6152    0.3474    0.0000 C   0  0  0  0  0  0  0  0  0  0  0  0
    0.8043    1.6093    0.0000 O   0  0  0  0  0  0  0  0  0  0  0  0
    1.4917    2.9425    0.0000 C   0  0  0  0  0  0  0  0  0  0  0  0
    0.2317   -0.2321    0.0000 C   0  0  0  0  0  0  0  0  0  0  0  0
    0.0417   -1.7200    0.0000 C   0  0  0  0  0  0  0  0  0  0  0  0
   -1.3419   -2.2995    0.0000 C   0  0  0  0  0  0  0  0  0  0  0  0
   -2.5355   -1.3910    0.0000 C   0  0  0  0  0  0  0  0  0  0  0  0
   -3.9190   -1.9705    0.0000 C   0  0  0  0  0  0  0  0  0  0  0  0
   -5.1126   -1.0620    0.0000 C   0  0  0  0  0  0  0  0  0  0  0  0
   -6.4962   -1.6414    0.0000 C   0  0  0  0  0  0  0  0  0  0  0  0
   -7.6898   -0.7330    0.0000 C   0  0  0  0  0  0  0  0  0  0  0  0
   -9.0733   -1.3124    0.0000 C   0  0  0  0  0  0  0  0  0  0  0  0
   -7.4998    0.7550    0.0000 C   0  0  0  0  0  0  0  0  0  0  0  0
   -6.1163    1.3344    0.0000 C   0  0  0  0  0  0  0  0  0  0  0  0
   -5.9263    2.8223    0.0000 O   0  0  0  0  0  0  0  0  0  0  0  0
   -4.9227    0.4259    0.0000 C   0  0  0  0  0  0  0  0  0  0  0  0
   -3.5391    1.0054    0.0000 C   0  0  0  0  0  0  0  0  0  0  0  0
   -3.3491    2.4933    0.0000 O   0  0  0  0  0  0  0  0  0  0  0  0
   -2.3455    0.0969    0.0000 C   0  0  0  0  0  0  0  0  0  0  0  0
   -0.9619    0.6764    0.0000 C   0  0  0  0  0  0  0  0  0  0  0  0
   -0.7720    2.1643    0.0000 O   0  0  0  0  0  0  0  0  0  0  0  0
  1  2  1  0
  2  3  1  0
  3  4  2  0
  4  5  1  0
  5  6  2  0
  6  7  1  0
  7  8  2  0
  8  9  1  0
  9 10  2  0
  9 11  1  0
 11 12  2  0
 12 13  1  0
 13 14  1  0
 14 15  1  6
 14 16  1  0
 16 17  1  0
 17 18  1  6
 12 19  1  0
 19 20  1  0
 20 21  1  0
 19 22  1  0
 22 23  2  0
 23 24  1  0
 24 25  2  0
 25 26  1  0
 26 27  1  0
 27 28  2  0
 28 29  1  0
 29 30  1  0
 29 31  2  0
 31 32  1  0
 32 33  1  0
 32 34  2  0
 34 35  1  0
 35 36  2  0
 35 37  1  0
 37 38  2  0
 38 39  1  0
  8  3  1  0
 17 11  1  0
 38 22  1  0
 19  7  1  0
 37 25  1  0
 34 27  1  0
M  END
>  <identifier>  (441) 
CNP0436832.1

>  <canonical_smiles>  (441) 
COC1=CC=CC2=C1C(=O)C1=C(C[C@H](C)O[C@@H]1C)C2(OC)C1=CC=C2CC3=CC(C)=CC(O)=C3C(=O)C2=C1O

>  <standard_inchi>  (441) 
InChI=1S/C32H30O7/c1-15-11-19-14-18-9-10-21(29(34)27(18)31(36)26(19)23(33)12-15)32(38-5)20-7-6-8-24(37-4)28(20)30(35)25-17(3)39-16(2)13-22(25)32/h6-12,16-17,33-34H,13-14H2,1-5H3/t16-,17+,32?/m0/s1

>  <standard_inchi_key>  (441) 
LNMCSAJOFQEYRE-KZQCBURKSA-N

>  <name>  (441) 
nan

>  <iupac_name>  (441) 
(1~{R},3~{S})-5-(1,8-dihydroxy-6-methyl-9-oxo-10~{H}-anthracen-2-yl)-5,9-dimethoxy-1,3-dimethyl-3,4-dihydro-1~{H}-benzo[g]isochromen-10-one

>  <annotation_level>  (441) 
5

>  <total_atom_count>  (441) 
69

>  <heavy_atom_count>  (441) 
39

>  <molecular_weight>  (441) 
526.59

>  <exact_molecular_weight>  (441) 
526.19915

>  <molecular_formula>  (441) 
C32H30O7

>  <alogp>  (441) 
5.13

>  <topological_polar_surface_area>  (441) 
102.29

>  <rotatable_bond_count>  (441) 
3

>  <hydrogen_bond_acceptors>  (441) 
7

>  <hydrogen_bond_donors>  (441) 
2

>  <hydrogen_bond_acceptors_lipinski>  (441) 
7

>  <hydrogen_bond_donors_lipinski>  (441) 
2

>  <lipinski_rule_of_five_violations>  (441) 
2

>  <aromatic_rings_count>  (441) 
3

>  <qed_drug_likeliness>  (441) 
0.38

>  <formal_charge>  (441) 
0

>  <fractioncsp3>  (441) 
0.31

>  <number_of_minimal_rings>  (441) 
6

>  <van_der_walls_volume>  (441) 
461.06

>  <contains_sugar>  (441) 
False

>  <contains_ring_sugars>  (441) 
False

>  <contains_linear_sugars>  (441) 
False

>  <murcko_framework>  (441) 
O1CC2=C(CC1)C(c3ccc4c(c3)Cc5ccccc5C4)c6ccccc6C2

>  <np_likeness>  (441) 
1.37

>  <chemical_class>  (441) 
Naphthopyrans

>  <chemical_sub_class>  (441) 
Naphthopyranones

>  <chemical_super_class>  (441) 
Organoheterocyclic compounds

>  <direct_parent_classification>  (441) 
Naphthopyranones

>  <np_classifier_pathway>  (441) 
Polyketides

>  <np_classifier_superclass>  (441) 
Polycyclic aromatic polyketides

>  <np_classifier_class>  (441) 
Anthraquinones and anthrones

>  <np_classifier_is_glycoside>  (441) 
False

>  <organisms>  (441) 
Karwinskia parvifolia

>  <collections>  (441) 
BIOFACQUIM|Latin America dataset

>  <dois>  (441) 
10.1021/np500430q

>  <synonyms>  (441) 
Karwinaphthopyranone B2

>  <cas>  (441) 
nan

$$$$

     RDKit          2D

 38 43  0  0  0  0  0  0  0  0999 V2000
   -8.1233   -1.9670    0.0000 C   0  0  0  0  0  0  0  0  0  0  0  0
   -7.3793   -0.6645    0.0000 C   0  0  0  0  0  0  0  0  0  0  0  0
   -8.7912   -0.1580    0.0000 O   0  0  0  0  0  0  0  0  0  0  0  0
   -7.1257    0.8139    0.0000 C   0  0  0  0  0  0  0  0  0  0  0  0
   -5.7185    1.3335    0.0000 C   0  0  0  0  0  0  0  0  0  0  0  0
   -5.4649    2.8119    0.0000 O   0  0  0  0  0  0  0  0  0  0  0  0
   -4.5650    0.3746    0.0000 C   0  0  0  0  0  0  0  0  0  0  0  0
   -4.8187   -1.1038    0.0000 C   0  0  0  0  0  0  0  0  0  0  0  0
   -3.6652   -2.0626    0.0000 C   0  0  0  0  0  0  0  0  0  0  0  0
   -2.2580   -1.5431    0.0000 C   0  0  0  0  0  0  0  0  0  0  0  0
   -1.1045   -2.5020    0.0000 C   0  0  0  0  0  0  0  0  0  0  0  0
    0.3027   -1.9824    0.0000 C   0  0  0  0  0  0  0  0  0  0  0  0
    0.5563   -0.5040    0.0000 C   0  0  0  0  0  0  0  0  0  0  0  0
    1.9635    0.0155    0.0000 C   0  0  0  0  0  0  0  0  0  0  0  0
    3.1170   -0.9434    0.0000 C   0  0  0  0  0  0  0  0  0  0  0  0
    2.8633   -2.4218    0.0000 C   0  0  0  0  0  0  0  0  0  0  0  0
    4.0168   -3.3806    0.0000 C   0  0  0  0  0  0  0  0  0  0  0  0
    4.7728   -4.6762    0.0000 C   0  0  0  0  0  0  0  0  0  0  0  0
    2.8722   -4.3501    0.0000 O   0  0  0  0  0  0  0  0  0  0  0  0
    5.4240   -2.8611    0.0000 C   0  0  0  0  0  0  0  0  0  0  0  0
    5.6776   -1.3827    0.0000 C   0  0  0  0  0  0  0  0  0  0  0  0
    7.0848   -0.8631    0.0000 O   0  0  0  0  0  0  0  0  0  0  0  0
    4.5241   -0.4238    0.0000 C   0  0  0  0  0  0  0  0  0  0  0  0
    4.7778    1.0546    0.0000 C   0  0  0  0  0  0  0  0  0  0  0  0
    6.1849    1.5741    0.0000 O   0  0  0  0  0  0  0  0  0  0  0  0
    3.6243    2.0134    0.0000 C   0  0  0  0  0  0  0  0  0  0  0  0
    3.8779    3.4918    0.0000 C   0  0  0  0  0  0  0  0  0  0  0  0
    5.2851    4.0114    0.0000 O   0  0  0  0  0  0  0  0  0  0  0  0
    2.7244    4.4507    0.0000 C   0  0  0  0  0  0  0  0  0  0  0  0
    1.3172    3.9312    0.0000 C   0  0  0  0  0  0  0  0  0  0  0  0
    1.0636    2.4528    0.0000 C   0  0  0  0  0  0  0  0  0  0  0  0
    2.2171    1.4939    0.0000 C   0  0  0  0  0  0  0  0  0  0  0  0
   -0.5972    0.4548    0.0000 C   0  0  0  0  0  0  0  0  0  0  0  0
   -0.3436    1.9332    0.0000 O   0  0  0  0  0  0  0  0  0  0  0  0
   -2.0044   -0.0647    0.0000 C   0  0  0  0  0  0  0  0  0  0  0  0
   -3.1579    0.8942    0.0000 C   0  0  0  0  0  0  0  0  0  0  0  0
   -2.9042    2.3726    0.0000 O   0  0  0  0  0  0  0  0  0  0  0  0
   -6.2258   -1.6233    0.0000 C   0  0  0  0  0  0  0  0  0  0  0  0
  2  1  1  1
  2  3  1  0
  2  4  1  0
  4  5  1  0
  5  6  2  0
  5  7  1  0
  7  8  2  0
  8  9  1  0
  9 10  2  0
 10 11  1  0
 11 12  2  0
 12 13  1  0
 13 14  1  0
 14 15  2  0
 15 16  1  0
 16 17  1  0
 17 18  1  6
 17 19  1  0
 17 20  1  0
 20 21  1  0
 21 22  2  0
 21 23  1  0
 23 24  2  0
 24 25  1  0
 24 26  1  0
 26 27  2  0
 27 28  1  0
 27 29  1  0
 29 30  2  0
 30 31  1  0
 31 32  2  0
 13 33  2  0
 33 34  1  0
 33 35  1  0
 35 36  2  0
 36 37  1  0
  8 38  1  0
 38  2  1  0
 36  7  1  0
 35 10  1  0
 32 14  1  0
 23 15  1  0
 32 26  1  0
M  END
>  <identifier>  (442) 
CNP0282653.1

>  <canonical_smiles>  (442) 
C[C@@]1(O)CC(=O)C2=C(C=C3C=CC(C4=C5C[C@](C)(O)CC(=O)C5=C(O)C5=C(O)C=CC=C45)=C(O)C3=C2O)C1

>  <standard_inchi>  (442) 
InChI=1S/C30H26O8/c1-29(37)9-14-8-13-6-7-16(26(34)22(13)27(35)21(14)19(32)11-29)23-15-4-3-5-18(31)24(15)28(36)25-17(23)10-30(2,38)12-20(25)33/h3-8,31,34-38H,9-12H2,1-2H3/t29-,30-/m0/s1

>  <standard_inchi_key>  (442) 
FBPZAGOTWAVQJH-KYJUHHDHSA-N

>  <name>  (442) 
Peroxisomicine a1

>  <iupac_name>  (442) 
(3~{S})-3,8,9-trihydroxy-3-methyl-10-[(6~{S})-1,6,9-trihydroxy-6-methyl-8-oxo-5,7-dihydroanthracen-2-yl]-2,4-dihydroanthracen-1-one

>  <annotation_level>  (442) 
5

>  <total_atom_count>  (442) 
64

>  <heavy_atom_count>  (442) 
38

>  <molecular_weight>  (442) 
514.53

>  <exact_molecular_weight>  (442) 
514.16277

>  <molecular_formula>  (442) 
C30H26O8

>  <alogp>  (442) 
4.24

>  <topological_polar_surface_area>  (442) 
155.52

>  <rotatable_bond_count>  (442) 
1

>  <hydrogen_bond_acceptors>  (442) 
8

>  <hydrogen_bond_donors>  (442) 
6

>  <hydrogen_bond_acceptors_lipinski>  (442) 
8

>  <hydrogen_bond_donors_lipinski>  (442) 
6

>  <lipinski_rule_of_five_violations>  (442) 
2

>  <aromatic_rings_count>  (442) 
4

>  <qed_drug_likeliness>  (442) 
0.22

>  <formal_charge>  (442) 
0

>  <fractioncsp3>  (442) 
0.27

>  <number_of_minimal_rings>  (442) 
6

>  <van_der_walls_volume>  (442) 
435.63

>  <contains_sugar>  (442) 
False

>  <contains_ring_sugars>  (442) 
False

>  <contains_linear_sugars>  (442) 
False

>  <murcko_framework>  (442) 
c1ccc2c(c1)cc3c(c2-c4ccc5cc6c(cc5c4)CCCC6)CCCC3

>  <np_likeness>  (442) 
1.58

>  <chemical_class>  (442) 
Arylnaphthalene lignans

>  <chemical_sub_class>  (442) 
Arylnaphthalene lignans

>  <chemical_super_class>  (442) 
Lignans, neolignans and related compounds

>  <direct_parent_classification>  (442) 
Arylnaphthalene lignans

>  <np_classifier_pathway>  (442) 
Polyketides

>  <np_classifier_superclass>  (442) 
Polycyclic aromatic polyketides

>  <np_classifier_class>  (442) 
Anthraquinones and anthrones

>  <np_classifier_is_glycoside>  (442) 
False

>  <organisms>  (442) 
Karwinskia humboldtiana|Karwinskia parvifolia

>  <collections>  (442) 
BIOFACQUIM|CMAUP (cCollective molecular activities of useful plants)|Latin America dataset|NPASS|Super Natural II

>  <dois>  (442) 
10.1021/np500430q

>  <synonyms>  (442) 
Karwinskia toxin T-514|110270-61-6|Q308RHT4PV|(2|9'-Bianthracene)-4'|8(1'H|5H)-dione| 2'|3'|6|7-tetrahydro-2'|6-dimethyl-1|2'|5'|6|9|10'-hexahydroxy-|Toxin T 514|UNII-Q308RHT4PV|T 514|Karwinskia humboldtiana toxin| T-514|BRN 2687083|TOXIN T-514|CHEMBL3355662|2'|6-Dimethyl-1|2'|5'|6|9|10'-hexahydroxy-2'|3'|6|7-tetrahydro-(2|9'-bianthracene)-4'|8(1'H|5H)-dione|T-514|Q27286939|(2|9'-BIANTHRACENE)-4'|8(1'H|5H)-DIONE| 2'|3'|6|7-TETRAHYDRO-1|2'|5'|6|9|10'-HEXAHYDROXY-2'|6-DIMETHYL-| (2S|2'S|6S)-|(3S)-3|8|9-trihydroxy-3-methyl-7-(2S)-2|5|10-trihydroxy-2-methyl-4-oxo-1|3-dihydroanthracen-9-yl-2|4-dihydroanthracen-1-one|Peroxisomicine

>  <cas>  (442) 
110270-61-6

$$$$

     RDKit          2D

 40 45  0  0  0  0  0  0  0  0999 V2000
    5.4417   -4.9944    0.0000 C   0  0  0  0  0  0  0  0  0  0  0  0
    5.1507   -3.5229    0.0000 O   0  0  0  0  0  0  0  0  0  0  0  0
    3.7308   -3.0392    0.0000 C   0  0  0  0  0  0  0  0  0  0  0  0
    2.6020   -4.0269    0.0000 C   0  0  0  0  0  0  0  0  0  0  0  0
    1.1821   -3.5432    0.0000 C   0  0  0  0  0  0  0  0  0  0  0  0
    0.8911   -2.0717    0.0000 C   0  0  0  0  0  0  0  0  0  0  0  0
    2.0200   -1.0839    0.0000 C   0  0  0  0  0  0  0  0  0  0  0  0
    3.4398   -1.5677    0.0000 C   0  0  0  0  0  0  0  0  0  0  0  0
    4.5687   -0.5799    0.0000 C   0  0  0  0  0  0  0  0  0  0  0  0
    5.9885   -1.0636    0.0000 O   0  0  0  0  0  0  0  0  0  0  0  0
    4.2777    0.8916    0.0000 C   0  0  0  0  0  0  0  0  0  0  0  0
    2.8578    1.3753    0.0000 C   0  0  0  0  0  0  0  0  0  0  0  0
    2.5668    2.8468    0.0000 C   0  0  0  0  0  0  0  0  0  0  0  0
    3.6957    3.8346    0.0000 C   0  0  0  0  0  0  0  0  0  0  0  0
    3.4047    5.3061    0.0000 C   0  0  0  0  0  0  0  0  0  0  0  0
    5.1155    3.3509    0.0000 O   0  0  0  0  0  0  0  0  0  0  0  0
    5.4065    1.8794    0.0000 C   0  0  0  0  0  0  0  0  0  0  0  0
    6.8264    1.3956    0.0000 C   0  0  0  0  0  0  0  0  0  0  0  0
    1.7290    0.3876    0.0000 C   0  0  0  0  0  0  0  0  0  0  0  0
    0.9522    1.6708    0.0000 O   0  0  0  0  0  0  0  0  0  0  0  0
    1.6752    2.9851    0.0000 C   0  0  0  0  0  0  0  0  0  0  0  0
    0.3303   -0.1546    0.0000 C   0  0  0  0  0  0  0  0  0  0  0  0
    0.1005   -1.6368    0.0000 C   0  0  0  0  0  0  0  0  0  0  0  0
   -1.2981   -2.1790    0.0000 C   0  0  0  0  0  0  0  0  0  0  0  0
   -2.4669   -1.2388    0.0000 C   0  0  0  0  0  0  0  0  0  0  0  0
   -3.8655   -1.7809    0.0000 C   0  0  0  0  0  0  0  0  0  0  0  0
   -4.0953   -3.2632    0.0000 O   0  0  0  0  0  0  0  0  0  0  0  0
   -5.0343   -0.8407    0.0000 C   0  0  0  0  0  0  0  0  0  0  0  0
   -6.4329   -1.3828    0.0000 C   0  0  0  0  0  0  0  0  0  0  0  0
   -7.6017   -0.4426    0.0000 C   0  0  0  0  0  0  0  0  0  0  0  0
   -9.0003   -0.9847    0.0000 C   0  0  0  0  0  0  0  0  0  0  0  0
   -7.3718    1.0397    0.0000 C   0  0  0  0  0  0  0  0  0  0  0  0
   -5.9732    1.5818    0.0000 C   0  0  0  0  0  0  0  0  0  0  0  0
   -5.7434    3.0641    0.0000 O   0  0  0  0  0  0  0  0  0  0  0  0
   -4.8044    0.6416    0.0000 C   0  0  0  0  0  0  0  0  0  0  0  0
   -3.4058    1.1837    0.0000 C   0  0  0  0  0  0  0  0  0  0  0  0
   -3.1760    2.6660    0.0000 O   0  0  0  0  0  0  0  0  0  0  0  0
   -2.2370    0.2435    0.0000 C   0  0  0  0  0  0  0  0  0  0  0  0
   -0.8384    0.7856    0.0000 C   0  0  0  0  0  0  0  0  0  0  0  0
   -0.6086    2.2679    0.0000 O   0  0  0  0  0  0  0  0  0  0  0  0
  1  2  1  0
  2  3  1  0
  3  4  2  0
  4  5  1  0
  5  6  2  0
  6  7  1  0
  7  8  2  0
  8  9  1  0
  9 10  2  0
  9 11  1  0
 11 12  2  0
 12 13  1  0
 13 14  1  0
 14 15  1  6
 14 16  1  0
 16 17  1  0
 17 18  1  6
 12 19  1  0
 19 20  1  0
 20 21  1  0
 19 22  1  0
 22 23  2  0
 23 24  1  0
 24 25  2  0
 25 26  1  0
 26 27  2  0
 26 28  1  0
 28 29  2  0
 29 30  1  0
 30 31  1  0
 30 32  2  0
 32 33  1  0
 33 34  1  0
 33 35  2  0
 35 36  1  0
 36 37  2  0
 36 38  1  0
 38 39  2  0
 39 40  1  0
  8  3  1  0
 17 11  1  0
 39 22  1  0
 19  7  1  0
 38 25  1  0
 35 28  1  0
M  END
>  <identifier>  (443) 
CNP0436829.1

>  <canonical_smiles>  (443) 
COC1=CC=CC2=C1C(=O)C1=C(C[C@H](C)O[C@@H]1C)C2(OC)C1=CC=C2C(=O)C3=CC(C)=CC(O)=C3C(=O)C2=C1O

>  <standard_inchi>  (443) 
InChI=1S/C32H28O8/c1-14-11-18-25(22(33)12-14)31(37)26-17(28(18)34)9-10-20(29(26)35)32(39-5)19-7-6-8-23(38-4)27(19)30(36)24-16(3)40-15(2)13-21(24)32/h6-12,15-16,33,35H,13H2,1-5H3/t15-,16+,32?/m0/s1

>  <standard_inchi_key>  (443) 
JDLMCXIIXLAGNF-YXOIUOLKSA-N

>  <name>  (443) 
nan

>  <iupac_name>  (443) 
2-[(1~{R},3~{S})-5,9-dimethoxy-1,3-dimethyl-10-oxo-3,4-dihydro-1~{H}-benzo[g]isochromen-5-yl]-1,8-dihydroxy-6-methyl-anthracene-9,10-dione

>  <annotation_level>  (443) 
5

>  <total_atom_count>  (443) 
68

>  <heavy_atom_count>  (443) 
40

>  <molecular_weight>  (443) 
540.57

>  <exact_molecular_weight>  (443) 
540.17842

>  <molecular_formula>  (443) 
C32H28O8

>  <alogp>  (443) 
4.77

>  <topological_polar_surface_area>  (443) 
119.36

>  <rotatable_bond_count>  (443) 
3

>  <hydrogen_bond_acceptors>  (443) 
8

>  <hydrogen_bond_donors>  (443) 
2

>  <hydrogen_bond_acceptors_lipinski>  (443) 
8

>  <hydrogen_bond_donors_lipinski>  (443) 
2

>  <lipinski_rule_of_five_violations>  (443) 
1

>  <aromatic_rings_count>  (443) 
3

>  <qed_drug_likeliness>  (443) 
0.38

>  <formal_charge>  (443) 
0

>  <fractioncsp3>  (443) 
0.28

>  <number_of_minimal_rings>  (443) 
6

>  <van_der_walls_volume>  (443) 
463.42

>  <contains_sugar>  (443) 
False

>  <contains_ring_sugars>  (443) 
False

>  <contains_linear_sugars>  (443) 
False

>  <murcko_framework>  (443) 
O1CC2=C(CC1)C(c3ccc4c(c3)Cc5ccccc5C4)c6ccccc6C2

>  <np_likeness>  (443) 
1.43

>  <chemical_class>  (443) 
Anthracenes

>  <chemical_sub_class>  (443) 
Anthraquinones

>  <chemical_super_class>  (443) 
Benzenoids

>  <direct_parent_classification>  (443) 
Anthraquinones

>  <np_classifier_pathway>  (443) 
Polyketides

>  <np_classifier_superclass>  (443) 
Polycyclic aromatic polyketides

>  <np_classifier_class>  (443) 
Anthraquinones and anthrones

>  <np_classifier_is_glycoside>  (443) 
False

>  <organisms>  (443) 
Karwinskia parvifolia

>  <collections>  (443) 
BIOFACQUIM|Latin America dataset

>  <dois>  (443) 
10.1021/np500430q

>  <synonyms>  (443) 
Karwinaphthopyranone B3

>  <cas>  (443) 
nan

$$$$

     RDKit          2D

 28 30  0  0  0  0  0  0  0  0999 V2000
    0.5121   -4.1243    0.0000 C   0  0  0  0  0  0  0  0  0  0  0  0
   -0.4810   -3.0002    0.0000 C   0  0  0  0  0  0  0  0  0  0  0  0
   -1.9511   -3.2982    0.0000 O   0  0  0  0  0  0  0  0  0  0  0  0
   -2.9443   -2.1741    0.0000 C   0  0  0  0  0  0  0  0  0  0  0  0
   -2.4674   -0.7520    0.0000 O   0  0  0  0  0  0  0  0  0  0  0  0
   -4.4144   -2.4722    0.0000 C   0  0  0  0  0  0  0  0  0  0  0  0
   -5.4076   -1.3481    0.0000 C   0  0  0  0  0  0  0  0  0  0  0  0
   -4.9306    0.0741    0.0000 C   0  0  0  0  0  0  0  0  0  0  0  0
   -3.4605    0.3721    0.0000 C   0  0  0  0  0  0  0  0  0  0  0  0
   -2.9836    1.7943    0.0000 C   0  0  0  0  0  0  0  0  0  0  0  0
   -3.9768    2.9184    0.0000 C   0  0  0  0  0  0  0  0  0  0  0  0
   -3.4999    4.3406    0.0000 O   0  0  0  0  0  0  0  0  0  0  0  0
   -5.4469    2.6204    0.0000 C   0  0  0  0  0  0  0  0  0  0  0  0
   -5.9238    1.1982    0.0000 C   0  0  0  0  0  0  0  0  0  0  0  0
   -0.0041   -1.5780    0.0000 C   0  0  0  0  0  0  0  0  0  0  0  0
   -0.8743   -0.3563    0.0000 C   0  0  0  0  0  0  0  0  0  0  0  0
    0.0187    0.8489    0.0000 C   0  0  0  0  0  0  0  0  0  0  0  0
    1.4409    0.3720    0.0000 C   0  0  0  0  0  0  0  0  0  0  0  0
    2.6626    1.2422    0.0000 C   0  0  0  0  0  0  0  0  0  0  0  0
    2.5199    2.7354    0.0000 O   0  0  0  0  0  0  0  0  0  0  0  0
    4.0272    0.6193    0.0000 C   0  0  0  0  0  0  0  0  0  0  0  0
    4.1699   -0.8739    0.0000 C   0  0  0  0  0  0  0  0  0  0  0  0
    5.5344   -1.4969    0.0000 C   0  0  0  0  0  0  0  0  0  0  0  0
    6.7562   -0.6267    0.0000 C   0  0  0  0  0  0  0  0  0  0  0  0
    6.6134    0.8665    0.0000 C   0  0  0  0  0  0  0  0  0  0  0  0
    7.8352    1.7367    0.0000 O   0  0  0  0  0  0  0  0  0  0  0  0
    5.2489    1.4895    0.0000 O   0  0  0  0  0  0  0  0  0  0  0  0
    1.4268   -1.1279    0.0000 O   0  0  0  0  0  0  0  0  0  0  0  0
  2  1  1  6
  2  3  1  0
  3  4  1  0
  4  5  2  0
  4  6  1  0
  6  7  2  0
  7  8  1  0
  8  9  2  0
  9 10  1  0
 10 11  2  0
 11 12  1  0
 11 13  1  0
 13 14  2  0
  2 15  1  0
 15 16  1  6
 16 17  1  0
 18 17  1  6
 18 19  1  0
 19 20  1  6
 19 21  1  0
 21 22  1  6
 22 23  1  0
 23 24  2  0
 24 25  1  0
 25 26  2  0
 25 27  1  0
 18 28  1  0
 14  8  1  0
 28 15  1  0
 27 21  1  0
M  END
>  <identifier>  (444) 
CNP0417147.1

>  <canonical_smiles>  (444) 
C[C@H](OC(=O)/C=C\C1=CC=C(O)C=C1)[C@@H]1CC[C@H]([C@H](O)[C@H]2CC=CC(=O)O2)O1

>  <standard_inchi>  (444) 
InChI=1S/C21H24O7/c1-13(26-20(24)12-7-14-5-8-15(22)9-6-14)16-10-11-18(27-16)21(25)17-3-2-4-19(23)28-17/h2,4-9,12-13,16-18,21-22,25H,3,10-11H2,1H3/b12-7-/t13-,16-,17+,18+,21+/m0/s1

>  <standard_inchi_key>  (444) 
DEEHWRGXKJRSMV-SJFPRCBQSA-N

>  <name>  (444) 
[(1S)-1-[(2S,5R)-5-[(S)-hydroxy-[(2R)-6-oxo-2,3-dihydropyran-2-yl]methyl]oxolan-2-yl]ethyl] (Z)-3-(4-hydroxyphenyl)prop-2-enoate

>  <iupac_name>  (444) 
[(1~{S})-1-[(2~{S},5~{R})-5-[(~{S})-hydroxy-[(2~{R})-6-oxo-2,3-dihydropyran-2-yl]methyl]tetrahydrofuran-2-yl]ethyl] (~{Z})-3-(4-hydroxyphenyl)prop-2-enoate

>  <annotation_level>  (444) 
5

>  <total_atom_count>  (444) 
52

>  <heavy_atom_count>  (444) 
28

>  <molecular_weight>  (444) 
388.42

>  <exact_molecular_weight>  (444) 
388.1522

>  <molecular_formula>  (444) 
C21H24O7

>  <alogp>  (444) 
2.12

>  <topological_polar_surface_area>  (444) 
102.29

>  <rotatable_bond_count>  (444) 
6

>  <hydrogen_bond_acceptors>  (444) 
7

>  <hydrogen_bond_donors>  (444) 
2

>  <hydrogen_bond_acceptors_lipinski>  (444) 
7

>  <hydrogen_bond_donors_lipinski>  (444) 
2

>  <lipinski_rule_of_five_violations>  (444) 
0

>  <aromatic_rings_count>  (444) 
1

>  <qed_drug_likeliness>  (444) 
0.57

>  <formal_charge>  (444) 
0

>  <fractioncsp3>  (444) 
0.43

>  <number_of_minimal_rings>  (444) 
3

>  <van_der_walls_volume>  (444) 
347.23

>  <contains_sugar>  (444) 
False

>  <contains_ring_sugars>  (444) 
False

>  <contains_linear_sugars>  (444) 
False

>  <murcko_framework>  (444) 
O(CC=Cc1ccccc1)CC2OC(CC2)CC3OCC=CC3

>  <np_likeness>  (444) 
1.88

>  <chemical_class>  (444) 
Cinnamic acids and derivatives

>  <chemical_sub_class>  (444) 
Hydroxycinnamic acids and derivatives

>  <chemical_super_class>  (444) 
Phenylpropanoids and polyketides

>  <direct_parent_classification>  (444) 
Hydroxycinnamic acids

>  <np_classifier_pathway>  (444) 
Shikimates and Phenylpropanoids

>  <np_classifier_superclass>  (444) 
nan

>  <np_classifier_class>  (444) 
nan

>  <np_classifier_is_glycoside>  (444) 
False

>  <organisms>  (444) 
Hyptis brevipes

>  <collections>  (444) 
BIOFACQUIM|Latin America dataset|NPASS

>  <dois>  (444) 
10.1021/acs.jnatprod.6b00953

>  <synonyms>  (444) 
CHEMBL4100827|Brevipolide L

>  <cas>  (444) 
nan

$$$$

     RDKit          2D

 25 29  0  0  0  0  0  0  0  0999 V2000
   -4.7851    2.0633    0.0000 O   0  0  0  0  0  0  0  0  0  0  0  0
   -3.3383    1.6675    0.0000 C   0  0  0  0  0  0  0  0  0  0  0  0
   -2.2721    2.7226    0.0000 C   0  0  0  0  0  0  0  0  0  0  0  0
   -0.8253    2.3267    0.0000 C   0  0  0  0  0  0  0  0  0  0  0  0
   -0.4446    0.8758    0.0000 C   0  0  0  0  0  0  0  0  0  0  0  0
   -0.0640   -0.5751    0.0000 O   0  0  0  0  0  0  0  0  0  0  0  0
    1.3828   -0.9709    0.0000 C   0  0  0  0  0  0  0  0  0  0  0  0
    1.7634   -2.4218    0.0000 C   0  0  0  0  0  0  0  0  0  0  0  0
    3.2103   -2.8176    0.0000 C   0  0  0  0  0  0  0  0  0  0  0  0
    4.2765   -1.7625    0.0000 C   0  0  0  0  0  0  0  0  0  0  0  0
    3.8959   -0.3116    0.0000 C   0  0  0  0  0  0  0  0  0  0  0  0
    4.9621    0.7434    0.0000 C   0  0  0  0  0  0  0  0  0  0  0  0
    4.5814    2.1943    0.0000 C   0  0  0  0  0  0  0  0  0  0  0  0
    3.1346    2.5902    0.0000 C   0  0  0  0  0  0  0  0  0  0  0  0
    2.0684    1.5351    0.0000 C   0  0  0  0  0  0  0  0  0  0  0  0
    2.4490    0.0842    0.0000 C   0  0  0  0  0  0  0  0  0  0  0  0
    0.6216    1.9309    0.0000 O   0  0  0  0  0  0  0  0  0  0  0  0
   -1.5109   -0.1792    0.0000 C   0  0  0  0  0  0  0  0  0  0  0  0
   -1.1302   -1.6301    0.0000 C   0  0  0  0  0  0  0  0  0  0  0  0
    0.3166   -2.0260    0.0000 O   0  0  0  0  0  0  0  0  0  0  0  0
   -2.1964   -2.6852    0.0000 C   0  0  0  0  0  0  0  0  0  0  0  0
   -3.6433   -2.2894    0.0000 C   0  0  0  0  0  0  0  0  0  0  0  0
   -4.0239   -0.8385    0.0000 C   0  0  0  0  0  0  0  0  0  0  0  0
   -5.4707   -0.4427    0.0000 O   0  0  0  0  0  0  0  0  0  0  0  0
   -2.9577    0.2166    0.0000 C   0  0  0  0  0  0  0  0  0  0  0  0
  1  2  2  0
  2  3  1  0
  3  4  1  0
  4  5  1  0
  5  6  1  0
  6  7  1  0
  7  8  2  0
  8  9  1  0
  9 10  2  0
 10 11  1  0
 11 12  2  0
 12 13  1  0
 13 14  2  0
 14 15  1  0
 15 16  2  0
 15 17  1  0
  5 18  1  0
 18 19  2  0
 19 20  1  0
 19 21  1  0
 21 22  2  0
 22 23  1  0
 23 24  1  0
 23 25  2  0
 25  2  1  0
 17  5  1  0
 25 18  1  0
 16  7  1  0
 16 11  1  0
M  END
>  <identifier>  (445) 
CNP0240221.0

>  <canonical_smiles>  (445) 
O=C1CCC2(OC3=CC=CC4=CC=CC(=C34)O2)C2=C(O)C=CC(O)=C12

>  <standard_inchi>  (445) 
InChI=1S/C20H14O5/c21-12-7-8-14(23)19-18(12)13(22)9-10-20(19)24-15-5-1-3-11-4-2-6-16(25-20)17(11)15/h1-8,21,23H,9-10H2

>  <standard_inchi_key>  (445) 
CDNGGUFYOISKCW-UHFFFAOYSA-N

>  <name>  (445) 
palmarumycin CP17

>  <iupac_name>  (445) 
5',8'-dihydroxyspiro[2,4-dioxatricyclo[7.3.1.0^{5,13}]trideca-1(12),5(13),6,8,10-pentaene-3,4'-tetralin]-1'-one

>  <annotation_level>  (445) 
5

>  <total_atom_count>  (445) 
39

>  <heavy_atom_count>  (445) 
25

>  <molecular_weight>  (445) 
334.33

>  <exact_molecular_weight>  (445) 
334.08412

>  <molecular_formula>  (445) 
C20H14O5

>  <alogp>  (445) 
3.85

>  <topological_polar_surface_area>  (445) 
75.99

>  <rotatable_bond_count>  (445) 
0

>  <hydrogen_bond_acceptors>  (445) 
5

>  <hydrogen_bond_donors>  (445) 
2

>  <hydrogen_bond_acceptors_lipinski>  (445) 
5

>  <hydrogen_bond_donors_lipinski>  (445) 
2

>  <lipinski_rule_of_five_violations>  (445) 
0

>  <aromatic_rings_count>  (445) 
3

>  <qed_drug_likeliness>  (445) 
0.61

>  <formal_charge>  (445) 
0

>  <fractioncsp3>  (445) 
0.15

>  <number_of_minimal_rings>  (445) 
5

>  <van_der_walls_volume>  (445) 
277.56

>  <contains_sugar>  (445) 
False

>  <contains_ring_sugars>  (445) 
False

>  <contains_linear_sugars>  (445) 
False

>  <murcko_framework>  (445) 
O1c2cccc3cccc(OC14c5ccccc5CCC4)c23

>  <np_likeness>  (445) 
1.45

>  <chemical_class>  (445) 
Tetralins

>  <chemical_sub_class>  (445) 
Tetralins

>  <chemical_super_class>  (445) 
Benzenoids

>  <direct_parent_classification>  (445) 
Tetralins

>  <np_classifier_pathway>  (445) 
Polyketides

>  <np_classifier_superclass>  (445) 
Naphthalenes

>  <np_classifier_class>  (445) 
Spirodioxynaphthalenes

>  <np_classifier_is_glycoside>  (445) 
False

>  <organisms>  (445) 
Berkleasmium sp.|Edenia gomezpompae|Edenia sp.

>  <collections>  (445) 
BIOFACQUIM|EMNPD|Latin America dataset|NPASS|NPAtlas|Super Natural II|UNPD (Universal Natural Products Database)

>  <dois>  (445) 
10.1021/jf500965k|10.1021/np400988a|10.1021/np800472q

>  <synonyms>  (445) 
CHEMBL457641|CHEBI:213354|5|8-dihydroxyspiro2|3-dihydronaphthalene-4|3'-2|4-dioxatricyclo7.3.1.05|13trideca-1(12)|5|7|9(13)|10-pentaene-1-one|Palmarumycin CP17

>  <cas>  (445) 
nan

$$$$

     RDKit          2D

 29 32  0  0  0  0  0  0  0  0999 V2000
   -4.7033    4.1635    0.0000 C   0  0  0  0  0  0  0  0  0  0  0  0
   -4.4022    2.6941    0.0000 C   0  0  0  0  0  0  0  0  0  0  0  0
   -2.9790    2.2201    0.0000 C   0  0  0  0  0  0  0  0  0  0  0  0
   -5.5242    1.6986    0.0000 C   0  0  0  0  0  0  0  0  0  0  0  0
   -6.9474    2.1725    0.0000 C   0  0  0  0  0  0  0  0  0  0  0  0
   -5.2231    0.2291    0.0000 C   0  0  0  0  0  0  0  0  0  0  0  0
   -3.7999   -0.2448    0.0000 C   0  0  0  0  0  0  0  0  0  0  0  0
   -3.4988   -1.7143    0.0000 C   0  0  0  0  0  0  0  0  0  0  0  0
   -4.6209   -2.7098    0.0000 C   0  0  0  0  0  0  0  0  0  0  0  0
   -2.0757   -2.1883    0.0000 C   0  0  0  0  0  0  0  0  0  0  0  0
   -1.6226   -3.6182    0.0000 C   0  0  0  0  0  0  0  0  0  0  0  0
   -0.1226   -3.6292    0.0000 C   0  0  0  0  0  0  0  0  0  0  0  0
    0.3513   -2.2060    0.0000 C   0  0  0  0  0  0  0  0  0  0  0  0
    1.7261   -1.6060    0.0000 C   0  0  0  0  0  0  0  0  0  0  0  0
    2.9331   -2.4965    0.0000 C   0  0  0  0  0  0  0  0  0  0  0  0
    4.3078   -1.8965    0.0000 C   0  0  0  0  0  0  0  0  0  0  0  0
    4.4756   -0.4059    0.0000 C   0  0  0  0  0  0  0  0  0  0  0  0
    5.8503    0.1942    0.0000 C   0  0  0  0  0  0  0  0  0  0  0  0
    6.0180    1.6848    0.0000 C   0  0  0  0  0  0  0  0  0  0  0  0
    7.3928    2.2848    0.0000 O   0  0  0  0  0  0  0  0  0  0  0  0
    4.8110    2.5753    0.0000 C   0  0  0  0  0  0  0  0  0  0  0  0
    3.4362    1.9753    0.0000 C   0  0  0  0  0  0  0  0  0  0  0  0
    3.2685    0.4847    0.0000 C   0  0  0  0  0  0  0  0  0  0  0  0
    2.0615    1.3752    0.0000 C   0  0  0  0  0  0  0  0  0  0  0  0
    1.8938   -0.1154    0.0000 C   0  0  0  0  0  0  0  0  0  0  0  0
    0.6867    0.7751    0.0000 C   0  0  0  0  0  0  0  0  0  0  0  0
   -0.6880    0.1751    0.0000 C   0  0  0  0  0  0  0  0  0  0  0  0
   -0.8557   -1.3155    0.0000 C   0  0  0  0  0  0  0  0  0  0  0  0
   -2.1492   -0.5560    0.0000 C   0  0  0  0  0  0  0  0  0  0  0  0
  1  2  1  0
  2  3  1  0
  2  4  1  0
  4  5  1  6
  4  6  1  0
  6  7  2  0
  7  8  1  0
  8  9  1  6
  8 10  1  0
 10 11  1  6
 11 12  1  0
 12 13  1  0
 13 14  2  0
 14 15  1  0
 15 16  2  0
 16 17  1  0
 17 18  2  0
 18 19  1  0
 19 20  2  0
 19 21  1  0
 21 22  1  0
 22 23  1  0
 23 24  1  6
 23 25  1  0
 25 26  1  6
 26 27  1  0
 27 28  1  0
 28 29  1  6
 28 10  1  0
 28 13  1  0
 25 14  1  0
 23 17  1  0
M  END
>  <identifier>  (446) 
CNP0193956.1

>  <canonical_smiles>  (446) 
CC(C)[C@@H](C)/C=C/[C@@H](C)[C@H]1CCC2=C3C=CC4=CC(=O)CC[C@]4(C)[C@H]3CC[C@@]21C

>  <standard_inchi>  (446) 
InChI=1S/C28H40O/c1-18(2)19(3)7-8-20(4)24-11-12-25-23-10-9-21-17-22(29)13-15-27(21,5)26(23)14-16-28(24,25)6/h7-10,17-20,24,26H,11-16H2,1-6H3/b8-7+/t19-,20+,24+,26-,27-,28+/m0/s1

>  <standard_inchi_key>  (446) 
OIMXTYUHMBQQJM-HSVWHVBGSA-N

>  <name>  (446) 
Ergosta-4,6,8(14),22-tetraen-3-one

>  <iupac_name>  (446) 
(9~{R},10~{R},13~{R},17~{R})-10,13-dimethyl-17-[(~{E},1~{R},4~{R})-1,4,5-trimethylhex-2-enyl]-1,2,9,11,12,15,16,17-octahydrocyclopenta[a]phenanthren-3-one

>  <annotation_level>  (446) 
5

>  <total_atom_count>  (446) 
69

>  <heavy_atom_count>  (446) 
29

>  <molecular_weight>  (446) 
392.63

>  <exact_molecular_weight>  (446) 
392.30792

>  <molecular_formula>  (446) 
C28H40O

>  <alogp>  (446) 
7.46

>  <topological_polar_surface_area>  (446) 
17.07

>  <rotatable_bond_count>  (446) 
4

>  <hydrogen_bond_acceptors>  (446) 
1

>  <hydrogen_bond_donors>  (446) 
0

>  <hydrogen_bond_acceptors_lipinski>  (446) 
1

>  <hydrogen_bond_donors_lipinski>  (446) 
0

>  <lipinski_rule_of_five_violations>  (446) 
1

>  <aromatic_rings_count>  (446) 
0

>  <qed_drug_likeliness>  (446) 
0.45

>  <formal_charge>  (446) 
0

>  <fractioncsp3>  (446) 
0.68

>  <number_of_minimal_rings>  (446) 
4

>  <van_der_walls_volume>  (446) 
408.58

>  <contains_sugar>  (446) 
False

>  <contains_ring_sugars>  (446) 
False

>  <contains_linear_sugars>  (446) 
False

>  <murcko_framework>  (446) 
C1=CC2=C3CCCC3CCC2C4C1=CCCC4

>  <np_likeness>  (446) 
2.94

>  <chemical_class>  (446) 
Steroids and steroid derivatives

>  <chemical_sub_class>  (446) 
Ergostane steroids

>  <chemical_super_class>  (446) 
Lipids and lipid-like molecules

>  <direct_parent_classification>  (446) 
Ergosterols and derivatives

>  <np_classifier_pathway>  (446) 
Terpenoids

>  <np_classifier_superclass>  (446) 
Steroids

>  <np_classifier_class>  (446) 
Ergostane steroids

>  <np_classifier_is_glycoside>  (446) 
False

>  <organisms>  (446) 
Achillea leptophylla|Agelenopsis aperta|Alibertia macrophylla|Alternaria alternata|Amomum sulcatum|Antrodia camphorata|Aphanamixis polystachya|Arnebia euchroma|Artemisia lanata|Aspergillus flavus|Aspergillus fumigatus|Aspergillus ochraceus|Aster conspicuus|Austrobaileya scandens|Barleria strigosa|Bosistoa floydii|Brassica oleracea|Callyspongia siphonella|Candida utilis|Cassia artemisioides|Cassia greggii|Cassia reticulata|Catathelasma ventricosa|Centaurea dealbata|Clitocybula oculus|Cordyceps sinensis|Coussarea brevicaulis|Cremastra appendiculata|Crescentia cujete|Crotalaria ferruginea|Dioscorea futschauensis|Diospyros ferrea|Dorstenia barnimiana|Dysidea herbacea|Edenia gomezpompae|Elaeagnus glabra|Eucalyptus coccifera|Euphorbia jaxartica|Fomes applanatus|Fomes officinalis|Fornes officinalis|Frullania inflata|Fungi|Fusanium moniliforme|Gama farinosum|Ganoderma australe|Ganoderma pfeifferi|Gouania lupuloides|Halocynthia aurantium|Hedysarum sachalinense|Inocybe aeruginascens|Juniperus occidentalis|Kalimeris shimadae|Kleinia tomentosa|Lamprometra klunzingeri|Lampteromyces japonicus|Macaranga conifera|Malva rotundifolia|Melanocarpus albomyces|Micromelum integerrimum|Mitragyna macrophylla|Murrayella periclados|Neonectria obtusispora|Nicotiana cavicola|Nymphaea ampla|Ormosia pachycarpa|Oxybasis urbica|Papaver glaucum|Penicillium camemberti|Penicillium citrinum|Penicillium commune|Penicillium griseofulvum|Penicillium islandicum|Penicillium rubrum|Pentaceraster regulus|Pestalotiopsis longiseta|Phora hyperborea|Pimpinella anisum|Piper philippinum|Plakortis lita|Pleione bulbocodioides|Pleione yunnanensis|Pleosporales sp. + Bacillus wiedmannii|Polyporus umbellatus|Prunus cerasus|Quercus laurifolia|Rhizomnium magnifolium|Rhizophora apiculata|Rubia ustulata|Salvia divaricata|Sarcophyton latum|Sargassum kjellmanianum|Schlumbergera truncata|Sedum forsterianum|Senna didymobotrya|Solanum nodiflorum|Sorocea ilicifolia|Sphacelaria arctica|Sphingomonas paucimobilis|Stomatanthes corumbensis|Streptomyces microflavus|Trapa bispinosa|Umbilicaria proboscidea|Uvaria mocoli|Vepris madagascarica|Verbascum georgicum|Veronica intercedens|Vigna mungo|Viguiera cordifolia|Wyethia angustifolia|Xylaria obovata|Zanthoxylum parviflorum|Zieria chevalieri|Zopfiella longicaudata|tripolium vulgare

>  <collections>  (446) 
Australian natural products|BIOFACQUIM|CMAUP (cCollective molecular activities of useful plants)|ChEBI NPs|EMNPD|InflamNat|KNApSaCK|Latin America dataset|NPASS|Super Natural II|TCMDB-Taiwan (Traditional Chinese Medicine database)|TIPdb (database of Taiwan indigenous plants)|VietHerb

>  <dois>  (446) 
10.1007/s12272-016-0865-y|10.1016/j.bmcl.2015.04.091|10.1016/j.steroids.2019.02.005|10.1021/jf500965k|10.1021/np100386q|10.1021/np100788h|10.1021/np100902f|10.1071/ch9742505

>  <synonyms>  (446) 
19254-69-4|Ergone|Ergosta-4|6|8(14)|22-tetraen-3-one| (22E)-|(22E)-Ergosta-4|6|8(14)|22-tetraen-3-one|RI51Y55U8P|(9R|10R|13R|17R)-17-(E|2R|5R)-5|6-dimethylhept-3-en-2-yl-10|13-dimethyl-1|2|9|11|12|15|16|17-octahydrocyclopentaaphenanthren-3-one|UNII-RI51Y55U8P|SCHEMBL6365010|CHEMBL3588948|CHEBI:69431|DTXSID201296846|NSC785136|AKOS022184779|FS-10533|24-methylcholesta-4|6|8(14)|22-tetraen-3-one|Q27104972|(22E)-4|6|8(14)|22-ERGOSTATETRAEN-3-ONE|Ergosta-4 6 8(14) 22-tetraen-3-one|Fungi|ergosta-4|6|8(14)|22-tetraen-3-one

>  <cas>  (446) 
19254-69-4

$$$$

     RDKit          2D

 25 27  0  0  0  0  0  0  0  0999 V2000
   -8.9629    0.7625    0.0000 C   0  0  0  0  0  0  0  0  0  0  0  0
   -7.4883    1.0371    0.0000 C   0  0  0  0  0  0  0  0  0  0  0  0
   -6.5132   -0.1027    0.0000 C   0  0  0  0  0  0  0  0  0  0  0  0
   -5.0385    0.1718    0.0000 C   0  0  0  0  0  0  0  0  0  0  0  0
   -4.0634   -0.9680    0.0000 C   0  0  0  0  0  0  0  0  0  0  0  0
   -2.5887   -0.6934    0.0000 C   0  0  0  0  0  0  0  0  0  0  0  0
   -2.0892    0.7210    0.0000 C   0  0  0  0  0  0  0  0  0  0  0  0
   -0.6145    0.9955    0.0000 C   0  0  0  0  0  0  0  0  0  0  0  0
   -0.1150    2.4099    0.0000 O   0  0  0  0  0  0  0  0  0  0  0  0
    0.3606   -0.1443    0.0000 C   0  0  0  0  0  0  0  0  0  0  0  0
   -0.1390   -1.5587    0.0000 C   0  0  0  0  0  0  0  0  0  0  0  0
   -1.6136   -1.8332    0.0000 C   0  0  0  0  0  0  0  0  0  0  0  0
    0.8361   -2.6985    0.0000 O   0  0  0  0  0  0  0  0  0  0  0  0
    2.3108   -2.4239    0.0000 C   0  0  0  0  0  0  0  0  0  0  0  0
    3.7904   -2.6703    0.0000 C   0  0  0  0  0  0  0  0  0  0  0  0
    2.3251   -3.9238    0.0000 C   0  0  0  0  0  0  0  0  0  0  0  0
    2.8103   -1.0095    0.0000 C   0  0  0  0  0  0  0  0  0  0  0  0
    4.2850   -0.7350    0.0000 C   0  0  0  0  0  0  0  0  0  0  0  0
    4.7845    0.6794    0.0000 C   0  0  0  0  0  0  0  0  0  0  0  0
    3.8094    1.8192    0.0000 C   0  0  0  0  0  0  0  0  0  0  0  0
    3.2830    3.2238    0.0000 C   0  0  0  0  0  0  0  0  0  0  0  0
    5.1013    2.5816    0.0000 O   0  0  0  0  0  0  0  0  0  0  0  0
    2.3348    1.5447    0.0000 C   0  0  0  0  0  0  0  0  0  0  0  0
    1.3597    2.6845    0.0000 O   0  0  0  0  0  0  0  0  0  0  0  0
    1.8352    0.1303    0.0000 C   0  0  0  0  0  0  0  0  0  0  0  0
  1  2  1  0
  2  3  1  0
  3  4  1  0
  4  5  1  0
  5  6  1  0
  6  7  2  0
  7  8  1  0
  8  9  1  0
  8 10  2  0
 10 11  1  0
 11 12  2  0
 11 13  1  0
 13 14  1  0
 14 15  1  0
 14 16  1  0
 14 17  1  0
 17 18  1  1
 18 19  1  0
 19 20  1  0
 20 21  1  6
 20 22  1  0
 20 23  1  0
 23 24  1  6
 23 25  1  0
 12  6  1  0
 25 17  1  0
 25 10  1  6
M  END
>  <identifier>  (447) 
CNP0205662.1

>  <canonical_smiles>  (447) 
CCCCCC1=CC(O)=C2C(=C1)OC(C)(C)[C@@H]1CC[C@](C)(O)[C@@H](O)[C@@H]21

>  <standard_inchi>  (447) 
InChI=1S/C21H32O4/c1-5-6-7-8-13-11-15(22)18-16(12-13)25-20(2,3)14-9-10-21(4,24)19(23)17(14)18/h11-12,14,17,19,22-24H,5-10H2,1-4H3/t14-,17-,19+,21+/m1/s1

>  <standard_inchi_key>  (447) 
TZGCTXUTNDNTTE-DYZHCLJRSA-N

>  <name>  (447) 
Cannabiripsol

>  <iupac_name>  (447) 
(6~{a}~{R},9~{S},10~{S},10~{a}~{R})-6,6,9-trimethyl-3-pentyl-7,8,10,10~{a}-tetrahydro-6~{a}~{H}-benzo[c]chromene-1,9,10-triol

>  <annotation_level>  (447) 
5

>  <total_atom_count>  (447) 
57

>  <heavy_atom_count>  (447) 
25

>  <molecular_weight>  (447) 
348.48

>  <exact_molecular_weight>  (447) 
348.23006

>  <molecular_formula>  (447) 
C21H32O4

>  <alogp>  (447) 
3.90

>  <topological_polar_surface_area>  (447) 
69.92

>  <rotatable_bond_count>  (447) 
4

>  <hydrogen_bond_acceptors>  (447) 
4

>  <hydrogen_bond_donors>  (447) 
3

>  <hydrogen_bond_acceptors_lipinski>  (447) 
4

>  <hydrogen_bond_donors_lipinski>  (447) 
3

>  <lipinski_rule_of_five_violations>  (447) 
0

>  <aromatic_rings_count>  (447) 
1

>  <qed_drug_likeliness>  (447) 
0.72

>  <formal_charge>  (447) 
0

>  <fractioncsp3>  (447) 
0.71

>  <number_of_minimal_rings>  (447) 
3

>  <van_der_walls_volume>  (447) 
341.66

>  <contains_sugar>  (447) 
False

>  <contains_ring_sugars>  (447) 
False

>  <contains_linear_sugars>  (447) 
False

>  <murcko_framework>  (447) 
O1c2ccccc2C3CCCCC3C1

>  <np_likeness>  (447) 
2.07

>  <chemical_class>  (447) 
Benzopyrans

>  <chemical_sub_class>  (447) 
1-benzopyrans

>  <chemical_super_class>  (447) 
Organoheterocyclic compounds

>  <direct_parent_classification>  (447) 
2,2-dimethyl-1-benzopyrans

>  <np_classifier_pathway>  (447) 
Polyketides

>  <np_classifier_superclass>  (447) 
Meroterpenoids

>  <np_classifier_class>  (447) 
Cannabinoids

>  <np_classifier_is_glycoside>  (447) 
False

>  <organisms>  (447) 
Cannabis sativa

>  <collections>  (447) 
BIOFACQUIM|CMAUP (cCollective molecular activities of useful plants)|ETM (Ethiopian Traditional Medicine) DB|Latin America dataset|NPASS|Phyto4Health

>  <dois>  (447) 
10.1021/acs.jnatprod.5b00065

>  <synonyms>  (447) 
72236-32-9|4P2CG6T3K9|CHEMBL3586111|(6aR|9S|10S|10aR)-9|10-Dihydroxyhexahydrocannabinol|UNII-4P2CG6T3K9|(6aR|9S|10S|10aR)-6|6|9-trimethyl-3-pentyl-7|8|10|10a-tetrahydro-6aH-benzocchromene-1|9|10-triol|SCHEMBL13214151|DTXSID90222552|BDBM50092342|73639-52-8|(6AR|9S|10S|10AR)-6A|7|8|9|10|10A-HEXAHYDRO-6|6|9-TRIMETHYL-3-PENTYL-6H-DIBENZO(B|D)PYRAN-1|9|10-TRIOL|6H-DIBENZO(B|D)PYRAN-1|9|10-TRIOL| 6A|7|8|9|10|10A-HEXAHYDRO-6|6|9-TRIMETHYL-3-PENTYL-| (6AR|9S|10S|10AR)-|6H-DIBENZO(B|D)PYRAN-1|9|10-TRIOL| 6A|7|8|9|10|10A-HEXAHYDRO-6|6|9-TRIMETHYL-3-PENTYL-| (6AR-(6A.ALPHA.|9.BETA.|10.ALPHA.|10A.BETA.))-|6H-Dibenzo(b|d)pyran-1|9|10-triol| 6a|7|8|9|10|10a-hexahydro-6|6|9-trimethyl-3-pentyl-| (6aR-(6aalpha|9beta|10alpha|10abeta))-|CBR|Cannabiripsol

>  <cas>  (447) 
72236-32-9|73639-52-8

$$$$

     RDKit          2D

 24 26  0  0  0  0  0  0  0  0999 V2000
   -9.0165    0.7355    0.0000 C   0  0  0  0  0  0  0  0  0  0  0  0
   -7.5485    1.0437    0.0000 C   0  0  0  0  0  0  0  0  0  0  0  0
   -6.5475   -0.0735    0.0000 C   0  0  0  0  0  0  0  0  0  0  0  0
   -5.0796    0.2348    0.0000 C   0  0  0  0  0  0  0  0  0  0  0  0
   -4.0786   -0.8824    0.0000 C   0  0  0  0  0  0  0  0  0  0  0  0
   -2.6106   -0.5741    0.0000 C   0  0  0  0  0  0  0  0  0  0  0  0
   -2.1436    0.8514    0.0000 C   0  0  0  0  0  0  0  0  0  0  0  0
   -0.6756    1.1596    0.0000 C   0  0  0  0  0  0  0  0  0  0  0  0
   -0.2086    2.5851    0.0000 O   0  0  0  0  0  0  0  0  0  0  0  0
    0.3253    0.0424    0.0000 C   0  0  0  0  0  0  0  0  0  0  0  0
   -0.1417   -1.3830    0.0000 C   0  0  0  0  0  0  0  0  0  0  0  0
   -1.6097   -1.6913    0.0000 C   0  0  0  0  0  0  0  0  0  0  0  0
    0.8593   -2.5002    0.0000 O   0  0  0  0  0  0  0  0  0  0  0  0
    2.3273   -2.1919    0.0000 C   0  0  0  0  0  0  0  0  0  0  0  0
    3.8121   -2.4043    0.0000 C   0  0  0  0  0  0  0  0  0  0  0  0
    2.3759   -3.6911    0.0000 C   0  0  0  0  0  0  0  0  0  0  0  0
    2.7943   -0.7665    0.0000 C   0  0  0  0  0  0  0  0  0  0  0  0
    4.2623   -0.4582    0.0000 C   0  0  0  0  0  0  0  0  0  0  0  0
    4.7293    0.9672    0.0000 C   0  0  0  0  0  0  0  0  0  0  0  0
    6.1973    1.2755    0.0000 O   0  0  0  0  0  0  0  0  0  0  0  0
    3.7283    2.0844    0.0000 C   0  0  0  0  0  0  0  0  0  0  0  0
    4.1954    3.5099    0.0000 C   0  0  0  0  0  0  0  0  0  0  0  0
    2.2604    1.7762    0.0000 C   0  0  0  0  0  0  0  0  0  0  0  0
    1.7933    0.3507    0.0000 C   0  0  0  0  0  0  0  0  0  0  0  0
  1  2  1  0
  2  3  1  0
  3  4  1  0
  4  5  1  0
  5  6  1  0
  6  7  2  0
  7  8  1  0
  8  9  1  0
  8 10  2  0
 10 11  1  0
 11 12  2  0
 11 13  1  0
 13 14  1  0
 14 15  1  0
 14 16  1  0
 14 17  1  0
 17 18  1  6
 18 19  1  0
 19 20  1  1
 19 21  1  0
 21 22  1  0
 21 23  2  0
 24 23  1  1
 12  6  1  0
 24 17  1  0
 24 10  1  0
M  END
>  <identifier>  (448) 
CNP0317969.1

>  <canonical_smiles>  (448) 
CCCCCC1=CC(O)=C2C(=C1)OC(C)(C)[C@H]1C[C@H](O)C(C)=C[C@H]21

>  <standard_inchi>  (448) 
InChI=1S/C21H30O3/c1-5-6-7-8-14-10-18(23)20-15-9-13(2)17(22)12-16(15)21(3,4)24-19(20)11-14/h9-11,15-17,22-23H,5-8,12H2,1-4H3/t15-,16-,17-/m0/s1

>  <standard_inchi_key>  (448) 
INKUWBOHCFHXTJ-ULQDDVLXSA-N

>  <name>  (448) 
nan

>  <iupac_name>  (448) 
(6~{a}~{S},8~{S},10~{a}~{S})-6,6,9-trimethyl-3-pentyl-6~{a},7,8,10~{a}-tetrahydrobenzo[c]chromene-1,8-diol

>  <annotation_level>  (448) 
5

>  <total_atom_count>  (448) 
54

>  <heavy_atom_count>  (448) 
24

>  <molecular_weight>  (448) 
330.47

>  <exact_molecular_weight>  (448) 
330.21949

>  <molecular_formula>  (448) 
C21H30O3

>  <alogp>  (448) 
4.71

>  <topological_polar_surface_area>  (448) 
49.69

>  <rotatable_bond_count>  (448) 
4

>  <hydrogen_bond_acceptors>  (448) 
3

>  <hydrogen_bond_donors>  (448) 
2

>  <hydrogen_bond_acceptors_lipinski>  (448) 
3

>  <hydrogen_bond_donors_lipinski>  (448) 
2

>  <lipinski_rule_of_five_violations>  (448) 
0

>  <aromatic_rings_count>  (448) 
1

>  <qed_drug_likeliness>  (448) 
0.62

>  <formal_charge>  (448) 
0

>  <fractioncsp3>  (448) 
0.62

>  <number_of_minimal_rings>  (448) 
3

>  <van_der_walls_volume>  (448) 
328.88

>  <contains_sugar>  (448) 
False

>  <contains_ring_sugars>  (448) 
False

>  <contains_linear_sugars>  (448) 
False

>  <murcko_framework>  (448) 
O1c2ccccc2C3C=CCCC3C1

>  <np_likeness>  (448) 
2.29

>  <chemical_class>  (448) 
Benzopyrans

>  <chemical_sub_class>  (448) 
1-benzopyrans

>  <chemical_super_class>  (448) 
Organoheterocyclic compounds

>  <direct_parent_classification>  (448) 
2,2-dimethyl-1-benzopyrans

>  <np_classifier_pathway>  (448) 
Polyketides

>  <np_classifier_superclass>  (448) 
Meroterpenoids

>  <np_classifier_class>  (448) 
Cannabinoids

>  <np_classifier_is_glycoside>  (448) 
False

>  <organisms>  (448) 
Cannabis sativa

>  <collections>  (448) 
BIOFACQUIM|Latin America dataset

>  <dois>  (448) 
10.1021/acs.jnatprod.5b00065

>  <synonyms>  (448) 
8\u0152\u00b1-hydroxy-\u0152\u00ee9-tetrahydrocannabinol

>  <cas>  (448) 
nan

$$$$

     RDKit          2D

 24 26  0  0  0  0  0  0  0  0999 V2000
   -4.3518   -3.5046    0.0000 C   0  0  0  0  0  0  0  0  0  0  0  0
   -3.9050   -2.0727    0.0000 C   0  0  0  0  0  0  0  0  0  0  0  0
   -4.9218   -0.9698    0.0000 C   0  0  0  0  0  0  0  0  0  0  0  0
   -4.4750    0.4621    0.0000 C   0  0  0  0  0  0  0  0  0  0  0  0
   -3.0116    0.7912    0.0000 C   0  0  0  0  0  0  0  0  0  0  0  0
   -1.9948   -0.3117    0.0000 C   0  0  0  0  0  0  0  0  0  0  0  0
   -0.5314    0.0174    0.0000 C   0  0  0  0  0  0  0  0  0  0  0  0
    0.4853   -1.0854    0.0000 C   0  0  0  0  0  0  0  0  0  0  0  0
    0.0386   -2.5174    0.0000 O   0  0  0  0  0  0  0  0  0  0  0  0
    1.9488   -0.7563    0.0000 C   0  0  0  0  0  0  0  0  0  0  0  0
    2.3955    0.6756    0.0000 C   0  0  0  0  0  0  0  0  0  0  0  0
    3.8590    1.0047    0.0000 C   0  0  0  0  0  0  0  0  0  0  0  0
    4.8757   -0.0982    0.0000 C   0  0  0  0  0  0  0  0  0  0  0  0
    6.3392    0.2309    0.0000 C   0  0  0  0  0  0  0  0  0  0  0  0
    7.3559   -0.8720    0.0000 C   0  0  0  0  0  0  0  0  0  0  0  0
    8.8193   -0.5429    0.0000 C   0  0  0  0  0  0  0  0  0  0  0  0
    1.3788    1.7784    0.0000 C   0  0  0  0  0  0  0  0  0  0  0  0
   -0.0847    1.4494    0.0000 C   0  0  0  0  0  0  0  0  0  0  0  0
   -1.1014    2.5522    0.0000 O   0  0  0  0  0  0  0  0  0  0  0  0
   -2.5648    2.2231    0.0000 C   0  0  0  0  0  0  0  0  0  0  0  0
   -4.0526    2.4144    0.0000 C   0  0  0  0  0  0  0  0  0  0  0  0
   -2.6348    3.7215    0.0000 C   0  0  0  0  0  0  0  0  0  0  0  0
   -2.4416   -1.7436    0.0000 C   0  0  0  0  0  0  0  0  0  0  0  0
   -1.4249   -2.8464    0.0000 O   0  0  0  0  0  0  0  0  0  0  0  0
  1  2  2  0
  2  3  1  0
  3  4  1  0
  5  4  1  1
  5  6  1  0
  6  7  1  6
  7  8  2  0
  8  9  1  0
  8 10  1  0
 10 11  2  0
 11 12  1  0
 12 13  1  0
 13 14  1  0
 14 15  1  0
 15 16  1  0
 11 17  1  0
 17 18  2  0
 18 19  1  0
 19 20  1  0
 20 21  1  0
 20 22  1  0
  6 23  1  0
 23 24  1  1
 23  2  1  0
 20  5  1  0
 18  7  1  0
M  END
>  <identifier>  (449) 
CNP0343008.1

>  <canonical_smiles>  (449) 
C=C1CC[C@@H]2[C@H](C3=C(O)C=C(CCCCC)C=C3OC2(C)C)[C@H]1O

>  <standard_inchi>  (449) 
InChI=1S/C21H30O3/c1-5-6-7-8-14-11-16(22)19-17(12-14)24-21(3,4)15-10-9-13(2)20(23)18(15)19/h11-12,15,18,20,22-23H,2,5-10H2,1,3-4H3/t15-,18-,20+/m1/s1

>  <standard_inchi_key>  (449) 
HDNJNVPZXVJOMB-ZTNFWEORSA-N

>  <name>  (449) 
(6aR,10R,10aR)-6,6-dimethyl-9-methylidene-3-pentyl-7,8,10,10a-tetrahydro-6aH-benzo[c]chromene-1,10-diol

>  <iupac_name>  (449) 
(6~{a}~{R},10~{R},10~{a}~{R})-6,6-dimethyl-9-methylene-3-pentyl-7,8,10,10~{a}-tetrahydro-6~{a}~{H}-benzo[c]chromene-1,10-diol

>  <annotation_level>  (449) 
5

>  <total_atom_count>  (449) 
54

>  <heavy_atom_count>  (449) 
24

>  <molecular_weight>  (449) 
330.47

>  <exact_molecular_weight>  (449) 
330.21949

>  <molecular_formula>  (449) 
C21H30O3

>  <alogp>  (449) 
4.71

>  <topological_polar_surface_area>  (449) 
49.69

>  <rotatable_bond_count>  (449) 
4

>  <hydrogen_bond_acceptors>  (449) 
3

>  <hydrogen_bond_donors>  (449) 
2

>  <hydrogen_bond_acceptors_lipinski>  (449) 
3

>  <hydrogen_bond_donors_lipinski>  (449) 
2

>  <lipinski_rule_of_five_violations>  (449) 
0

>  <aromatic_rings_count>  (449) 
1

>  <qed_drug_likeliness>  (449) 
0.62

>  <formal_charge>  (449) 
0

>  <fractioncsp3>  (449) 
0.62

>  <number_of_minimal_rings>  (449) 
3

>  <van_der_walls_volume>  (449) 
326.93

>  <contains_sugar>  (449) 
False

>  <contains_ring_sugars>  (449) 
False

>  <contains_linear_sugars>  (449) 
False

>  <murcko_framework>  (449) 
O1c2ccccc2C3CCCCC3C1

>  <np_likeness>  (449) 
2.16

>  <chemical_class>  (449) 
Benzopyrans

>  <chemical_sub_class>  (449) 
1-benzopyrans

>  <chemical_super_class>  (449) 
Organoheterocyclic compounds

>  <direct_parent_classification>  (449) 
2,2-dimethyl-1-benzopyrans

>  <np_classifier_pathway>  (449) 
Polyketides

>  <np_classifier_superclass>  (449) 
Meroterpenoids

>  <np_classifier_class>  (449) 
Cannabinoids

>  <np_classifier_is_glycoside>  (449) 
False

>  <organisms>  (449) 
Cannabis sativa

>  <collections>  (449) 
BIOFACQUIM|CMAUP (cCollective molecular activities of useful plants)|Latin America dataset|Phyto4Health

>  <dois>  (449) 
10.1021/acs.jnatprod.5b00065

>  <synonyms>  (449) 
CHEMBL3586108|10alpha-Hydroxy-delta9'11-hexahydrocannabinol|56986-42-6|BDBM50092345|PD192583|10\u0152\u00b1-hydroxy-\u0152\u00ee9 11-hexahydrocannabinol

>  <cas>  (449) 
56986-42-6

$$$$

     RDKit          2D

 24 26  0  0  0  0  0  0  0  0999 V2000
   -8.8193    0.5429    0.0000 C   0  0  0  0  0  0  0  0  0  0  0  0
   -7.3559    0.8720    0.0000 C   0  0  0  0  0  0  0  0  0  0  0  0
   -6.3392   -0.2309    0.0000 C   0  0  0  0  0  0  0  0  0  0  0  0
   -4.8757    0.0982    0.0000 C   0  0  0  0  0  0  0  0  0  0  0  0
   -3.8590   -1.0047    0.0000 C   0  0  0  0  0  0  0  0  0  0  0  0
   -2.3955   -0.6756    0.0000 C   0  0  0  0  0  0  0  0  0  0  0  0
   -1.9488    0.7563    0.0000 C   0  0  0  0  0  0  0  0  0  0  0  0
   -0.4853    1.0854    0.0000 C   0  0  0  0  0  0  0  0  0  0  0  0
   -0.0386    2.5174    0.0000 O   0  0  0  0  0  0  0  0  0  0  0  0
    0.5314   -0.0174    0.0000 C   0  0  0  0  0  0  0  0  0  0  0  0
    0.0847   -1.4494    0.0000 C   0  0  0  0  0  0  0  0  0  0  0  0
   -1.3788   -1.7784    0.0000 C   0  0  0  0  0  0  0  0  0  0  0  0
    1.1014   -2.5522    0.0000 O   0  0  0  0  0  0  0  0  0  0  0  0
    2.5648   -2.2231    0.0000 C   0  0  0  0  0  0  0  0  0  0  0  0
    4.0526   -2.4144    0.0000 C   0  0  0  0  0  0  0  0  0  0  0  0
    2.6348   -3.7215    0.0000 C   0  0  0  0  0  0  0  0  0  0  0  0
    3.0116   -0.7912    0.0000 C   0  0  0  0  0  0  0  0  0  0  0  0
    4.4750   -0.4621    0.0000 C   0  0  0  0  0  0  0  0  0  0  0  0
    4.9218    0.9698    0.0000 C   0  0  0  0  0  0  0  0  0  0  0  0
    3.9050    2.0727    0.0000 C   0  0  0  0  0  0  0  0  0  0  0  0
    4.3518    3.5046    0.0000 C   0  0  0  0  0  0  0  0  0  0  0  0
    2.4416    1.7436    0.0000 C   0  0  0  0  0  0  0  0  0  0  0  0
    1.4249    2.8464    0.0000 O   0  0  0  0  0  0  0  0  0  0  0  0
    1.9948    0.3117    0.0000 C   0  0  0  0  0  0  0  0  0  0  0  0
  1  2  1  0
  2  3  1  0
  3  4  1  0
  4  5  1  0
  5  6  1  0
  6  7  2  0
  7  8  1  0
  8  9  1  0
  8 10  2  0
 10 11  1  0
 11 12  2  0
 11 13  1  0
 13 14  1  0
 14 15  1  0
 14 16  1  0
 14 17  1  0
 17 18  1  6
 18 19  1  0
 19 20  2  0
 20 21  1  0
 20 22  1  0
 22 23  1  6
 22 24  1  0
 12  6  1  0
 24 17  1  0
 24 10  1  1
M  END
>  <identifier>  (450) 
CNP0078693.1

>  <canonical_smiles>  (450) 
CCCCCC1=CC(O)=C2C(=C1)OC(C)(C)[C@H]1CC=C(C)[C@@H](O)[C@H]21

>  <standard_inchi>  (450) 
InChI=1S/C21H30O3/c1-5-6-7-8-14-11-16(22)19-17(12-14)24-21(3,4)15-10-9-13(2)20(23)18(15)19/h9,11-12,15,18,20,22-23H,5-8,10H2,1-4H3/t15-,18-,20+/m0/s1

>  <standard_inchi_key>  (450) 
KQQMZTULVOWZJR-ZAAXVRCTSA-N

>  <name>  (450) 
nan

>  <iupac_name>  (450) 
(6~{a}~{S},10~{S},10~{a}~{S})-6,6,9-trimethyl-3-pentyl-6~{a},7,10,10~{a}-tetrahydrobenzo[c]chromene-1,10-diol

>  <annotation_level>  (450) 
5

>  <total_atom_count>  (450) 
54

>  <heavy_atom_count>  (450) 
24

>  <molecular_weight>  (450) 
330.47

>  <exact_molecular_weight>  (450) 
330.21949

>  <molecular_formula>  (450) 
C21H30O3

>  <alogp>  (450) 
4.71

>  <topological_polar_surface_area>  (450) 
49.69

>  <rotatable_bond_count>  (450) 
4

>  <hydrogen_bond_acceptors>  (450) 
3

>  <hydrogen_bond_donors>  (450) 
2

>  <hydrogen_bond_acceptors_lipinski>  (450) 
3

>  <hydrogen_bond_donors_lipinski>  (450) 
2

>  <lipinski_rule_of_five_violations>  (450) 
0

>  <aromatic_rings_count>  (450) 
1

>  <qed_drug_likeliness>  (450) 
0.62

>  <formal_charge>  (450) 
0

>  <fractioncsp3>  (450) 
0.62

>  <number_of_minimal_rings>  (450) 
3

>  <van_der_walls_volume>  (450) 
328.90

>  <contains_sugar>  (450) 
False

>  <contains_ring_sugars>  (450) 
False

>  <contains_linear_sugars>  (450) 
False

>  <murcko_framework>  (450) 
O1c2ccccc2C3CC=CCC3C1

>  <np_likeness>  (450) 
2.18

>  <chemical_class>  (450) 
Benzopyrans

>  <chemical_sub_class>  (450) 
1-benzopyrans

>  <chemical_super_class>  (450) 
Organoheterocyclic compounds

>  <direct_parent_classification>  (450) 
2,2-dimethyl-1-benzopyrans

>  <np_classifier_pathway>  (450) 
Polyketides

>  <np_classifier_superclass>  (450) 
Meroterpenoids

>  <np_classifier_class>  (450) 
Cannabinoids

>  <np_classifier_is_glycoside>  (450) 
False

>  <organisms>  (450) 
Cannabis sativa

>  <collections>  (450) 
BIOFACQUIM|Latin America dataset

>  <dois>  (450) 
10.1021/acs.jnatprod.5b00065

>  <synonyms>  (450) 
10\u0152\u2264-hydroxy-\u0152\u00ee8-tetrahydrocannabinol

>  <cas>  (450) 
nan

$$$$

     RDKit          2D

 24 26  0  0  0  0  0  0  0  0999 V2000
   -9.0165    0.7355    0.0000 C   0  0  0  0  0  0  0  0  0  0  0  0
   -7.5485    1.0437    0.0000 C   0  0  0  0  0  0  0  0  0  0  0  0
   -6.5475   -0.0735    0.0000 C   0  0  0  0  0  0  0  0  0  0  0  0
   -5.0796    0.2348    0.0000 C   0  0  0  0  0  0  0  0  0  0  0  0
   -4.0786   -0.8824    0.0000 C   0  0  0  0  0  0  0  0  0  0  0  0
   -2.6106   -0.5741    0.0000 C   0  0  0  0  0  0  0  0  0  0  0  0
   -2.1436    0.8514    0.0000 C   0  0  0  0  0  0  0  0  0  0  0  0
   -0.6756    1.1596    0.0000 C   0  0  0  0  0  0  0  0  0  0  0  0
   -0.2086    2.5851    0.0000 O   0  0  0  0  0  0  0  0  0  0  0  0
    0.3253    0.0424    0.0000 C   0  0  0  0  0  0  0  0  0  0  0  0
   -0.1417   -1.3830    0.0000 C   0  0  0  0  0  0  0  0  0  0  0  0
   -1.6097   -1.6913    0.0000 C   0  0  0  0  0  0  0  0  0  0  0  0
    0.8593   -2.5002    0.0000 O   0  0  0  0  0  0  0  0  0  0  0  0
    2.3273   -2.1919    0.0000 C   0  0  0  0  0  0  0  0  0  0  0  0
    3.8121   -2.4043    0.0000 C   0  0  0  0  0  0  0  0  0  0  0  0
    2.3759   -3.6911    0.0000 C   0  0  0  0  0  0  0  0  0  0  0  0
    2.7943   -0.7665    0.0000 C   0  0  0  0  0  0  0  0  0  0  0  0
    4.2623   -0.4582    0.0000 C   0  0  0  0  0  0  0  0  0  0  0  0
    4.7293    0.9672    0.0000 C   0  0  0  0  0  0  0  0  0  0  0  0
    6.1973    1.2755    0.0000 O   0  0  0  0  0  0  0  0  0  0  0  0
    3.7283    2.0844    0.0000 C   0  0  0  0  0  0  0  0  0  0  0  0
    4.1954    3.5099    0.0000 C   0  0  0  0  0  0  0  0  0  0  0  0
    2.2604    1.7762    0.0000 C   0  0  0  0  0  0  0  0  0  0  0  0
    1.7933    0.3507    0.0000 C   0  0  0  0  0  0  0  0  0  0  0  0
  1  2  1  0
  2  3  1  0
  3  4  1  0
  4  5  1  0
  5  6  1  0
  6  7  2  0
  7  8  1  0
  8  9  1  0
  8 10  2  0
 10 11  1  0
 11 12  2  0
 11 13  1  0
 13 14  1  0
 14 15  1  0
 14 16  1  0
 14 17  1  0
 17 18  1  6
 18 19  1  0
 19 20  1  6
 19 21  1  0
 21 22  1  0
 21 23  2  0
 24 23  1  1
 12  6  1  0
 24 17  1  0
 24 10  1  0
M  END
>  <identifier>  (451) 
CNP0317969.2

>  <canonical_smiles>  (451) 
CCCCCC1=CC(O)=C2C(=C1)OC(C)(C)[C@H]1C[C@@H](O)C(C)=C[C@H]21

>  <standard_inchi>  (451) 
InChI=1S/C21H30O3/c1-5-6-7-8-14-10-18(23)20-15-9-13(2)17(22)12-16(15)21(3,4)24-19(20)11-14/h9-11,15-17,22-23H,5-8,12H2,1-4H3/t15-,16-,17+/m0/s1

>  <standard_inchi_key>  (451) 
INKUWBOHCFHXTJ-YESZJQIVSA-N

>  <name>  (451) 
nan

>  <iupac_name>  (451) 
(6~{a}~{S},8~{R},10~{a}~{S})-6,6,9-trimethyl-3-pentyl-6~{a},7,8,10~{a}-tetrahydrobenzo[c]chromene-1,8-diol

>  <annotation_level>  (451) 
5

>  <total_atom_count>  (451) 
54

>  <heavy_atom_count>  (451) 
24

>  <molecular_weight>  (451) 
330.47

>  <exact_molecular_weight>  (451) 
330.21949

>  <molecular_formula>  (451) 
C21H30O3

>  <alogp>  (451) 
4.71

>  <topological_polar_surface_area>  (451) 
49.69

>  <rotatable_bond_count>  (451) 
4

>  <hydrogen_bond_acceptors>  (451) 
3

>  <hydrogen_bond_donors>  (451) 
2

>  <hydrogen_bond_acceptors_lipinski>  (451) 
3

>  <hydrogen_bond_donors_lipinski>  (451) 
2

>  <lipinski_rule_of_five_violations>  (451) 
0

>  <aromatic_rings_count>  (451) 
1

>  <qed_drug_likeliness>  (451) 
0.62

>  <formal_charge>  (451) 
0

>  <fractioncsp3>  (451) 
0.62

>  <number_of_minimal_rings>  (451) 
3

>  <van_der_walls_volume>  (451) 
329.46

>  <contains_sugar>  (451) 
False

>  <contains_ring_sugars>  (451) 
False

>  <contains_linear_sugars>  (451) 
False

>  <murcko_framework>  (451) 
O1c2ccccc2C3C=CCCC3C1

>  <np_likeness>  (451) 
2.29

>  <chemical_class>  (451) 
Benzopyrans

>  <chemical_sub_class>  (451) 
1-benzopyrans

>  <chemical_super_class>  (451) 
Organoheterocyclic compounds

>  <direct_parent_classification>  (451) 
2,2-dimethyl-1-benzopyrans

>  <np_classifier_pathway>  (451) 
Polyketides

>  <np_classifier_superclass>  (451) 
Meroterpenoids

>  <np_classifier_class>  (451) 
Cannabinoids

>  <np_classifier_is_glycoside>  (451) 
False

>  <organisms>  (451) 
Cannabis sativa

>  <collections>  (451) 
BIOFACQUIM|Latin America dataset

>  <dois>  (451) 
10.1021/acs.jnatprod.5b00065

>  <synonyms>  (451) 
8\u0152\u2264-hydroxy-\u0152\u00ee9-tetrahydrocannabinol

>  <cas>  (451) 
nan

$$$$

     RDKit          2D

 24 27  0  0  0  0  0  0  0  0999 V2000
   -8.8034    0.4450    0.0000 C   0  0  0  0  0  0  0  0  0  0  0  0
   -7.3291    0.7213    0.0000 C   0  0  0  0  0  0  0  0  0  0  0  0
   -6.3526   -0.4173    0.0000 C   0  0  0  0  0  0  0  0  0  0  0  0
   -4.8783   -0.1409    0.0000 C   0  0  0  0  0  0  0  0  0  0  0  0
   -3.9018   -1.2796    0.0000 C   0  0  0  0  0  0  0  0  0  0  0  0
   -2.4275   -1.0032    0.0000 C   0  0  0  0  0  0  0  0  0  0  0  0
   -1.4510   -2.1418    0.0000 C   0  0  0  0  0  0  0  0  0  0  0  0
    0.0233   -1.8655    0.0000 C   0  0  0  0  0  0  0  0  0  0  0  0
    0.9998   -3.0041    0.0000 O   0  0  0  0  0  0  0  0  0  0  0  0
    0.5212   -0.4505    0.0000 C   0  0  0  0  0  0  0  0  0  0  0  0
   -0.4553    0.6881    0.0000 C   0  0  0  0  0  0  0  0  0  0  0  0
   -1.9296    0.4118    0.0000 C   0  0  0  0  0  0  0  0  0  0  0  0
    0.0425    2.1031    0.0000 O   0  0  0  0  0  0  0  0  0  0  0  0
    1.5168    2.3794    0.0000 C   0  0  0  0  0  0  0  0  0  0  0  0
    2.8077    3.1434    0.0000 C   0  0  0  0  0  0  0  0  0  0  0  0
    0.9887    3.7834    0.0000 C   0  0  0  0  0  0  0  0  0  0  0  0
    2.4933    1.2408    0.0000 C   0  0  0  0  0  0  0  0  0  0  0  0
    3.9677    1.5172    0.0000 C   0  0  0  0  0  0  0  0  0  0  0  0
    4.9441    0.3785    0.0000 C   0  0  0  0  0  0  0  0  0  0  0  0
    4.4463   -1.0364    0.0000 C   0  0  0  0  0  0  0  0  0  0  0  0
    5.8613   -1.5343    0.0000 C   0  0  0  0  0  0  0  0  0  0  0  0
    3.9485   -2.4514    0.0000 O   0  0  0  0  0  0  0  0  0  0  0  0
    2.9720   -1.3128    0.0000 C   0  0  0  0  0  0  0  0  0  0  0  0
    1.9955   -0.1742    0.0000 C   0  0  0  0  0  0  0  0  0  0  0  0
  1  2  1  0
  2  3  1  0
  3  4  1  0
  4  5  1  0
  5  6  1  0
  6  7  2  0
  7  8  1  0
  8  9  1  0
  8 10  2  0
 10 11  1  0
 11 12  2  0
 11 13  1  0
 13 14  1  0
 14 15  1  0
 14 16  1  0
 14 17  1  0
 17 18  1  6
 18 19  1  0
 19 20  1  0
 20 21  1  6
 20 22  1  0
 23 22  1  1
 23 24  1  0
 12  6  1  0
 24 17  1  0
 24 10  1  1
 23 20  1  0
M  END
>  <identifier>  (452) 
CNP0322436.1

>  <canonical_smiles>  (452) 
CCCCCC1=CC(O)=C2C(=C1)OC(C)(C)[C@@H]1CC[C@@]3(C)O[C@H]3[C@@H]21

>  <standard_inchi>  (452) 
InChI=1S/C21H30O3/c1-5-6-7-8-13-11-15(22)18-16(12-13)23-20(2,3)14-9-10-21(4)19(24-21)17(14)18/h11-12,14,17,19,22H,5-10H2,1-4H3/t14-,17-,19+,21-/m1/s1

>  <standard_inchi_key>  (452) 
VSQGBNUBIDZRPJ-BWZSVYRMSA-N

>  <name>  (452) 
(1R,10R,13R,15S)-9,9,13-trimethyl-5-pentyl-8,14-dioxatetracyclo[8.5.0.02,7.013,15]pentadeca-2,4,6-trien-3-ol

>  <iupac_name>  (452) 
(1~{R},10~{R},13~{R},15~{S})-9,9,13-trimethyl-5-pentyl-8,14-dioxatetracyclo[8.5.0.0^{2,7}.0^{13,15}]pentadeca-2,4,6-trien-3-ol

>  <annotation_level>  (452) 
5

>  <total_atom_count>  (452) 
54

>  <heavy_atom_count>  (452) 
24

>  <molecular_weight>  (452) 
330.47

>  <exact_molecular_weight>  (452) 
330.21949

>  <molecular_formula>  (452) 
C21H30O3

>  <alogp>  (452) 
4.95

>  <topological_polar_surface_area>  (452) 
41.99

>  <rotatable_bond_count>  (452) 
4

>  <hydrogen_bond_acceptors>  (452) 
3

>  <hydrogen_bond_donors>  (452) 
1

>  <hydrogen_bond_acceptors_lipinski>  (452) 
3

>  <hydrogen_bond_donors_lipinski>  (452) 
1

>  <lipinski_rule_of_five_violations>  (452) 
0

>  <aromatic_rings_count>  (452) 
1

>  <qed_drug_likeliness>  (452) 
0.63

>  <formal_charge>  (452) 
0

>  <fractioncsp3>  (452) 
0.71

>  <number_of_minimal_rings>  (452) 
4

>  <van_der_walls_volume>  (452) 
326.38

>  <contains_sugar>  (452) 
False

>  <contains_ring_sugars>  (452) 
False

>  <contains_linear_sugars>  (452) 
False

>  <murcko_framework>  (452) 
O1c2ccccc2C3C4OC4CCC3C1

>  <np_likeness>  (452) 
2.22

>  <chemical_class>  (452) 
Benzopyrans

>  <chemical_sub_class>  (452) 
1-benzopyrans

>  <chemical_super_class>  (452) 
Organoheterocyclic compounds

>  <direct_parent_classification>  (452) 
2,2-dimethyl-1-benzopyrans

>  <np_classifier_pathway>  (452) 
Polyketides

>  <np_classifier_superclass>  (452) 
Meroterpenoids

>  <np_classifier_class>  (452) 
Cannabinoids

>  <np_classifier_is_glycoside>  (452) 
False

>  <organisms>  (452) 
Cannabis sativa

>  <collections>  (452) 
BIOFACQUIM|CMAUP (cCollective molecular activities of useful plants)|Latin America dataset|Phyto4Health

>  <dois>  (452) 
10.1021/acs.jnatprod.5b00065

>  <synonyms>  (452) 
CHEMBL3586109|BDBM50092344|9\u0152\u2264 10\u0152\u2264-epoxyhexahydrocannabinol

>  <cas>  (452) 
nan

$$$$

     RDKit          2D

 29 31  0  0  0  0  0  0  0  0999 V2000
  -10.7002    1.4004    0.0000 C   0  0  0  0  0  0  0  0  0  0  0  0
   -9.9102    0.1254    0.0000 O   0  0  0  0  0  0  0  0  0  0  0  0
   -8.4109    0.1721    0.0000 C   0  0  0  0  0  0  0  0  0  0  0  0
   -7.7017    1.4938    0.0000 C   0  0  0  0  0  0  0  0  0  0  0  0
   -6.2024    1.5405    0.0000 C   0  0  0  0  0  0  0  0  0  0  0  0
   -5.4123    0.2654    0.0000 C   0  0  0  0  0  0  0  0  0  0  0  0
   -3.9131    0.3121    0.0000 C   0  0  0  0  0  0  0  0  0  0  0  0
   -3.1230   -0.9630    0.0000 C   0  0  0  0  0  0  0  0  0  0  0  0
   -1.6237   -0.9163    0.0000 C   0  0  0  0  0  0  0  0  0  0  0  0
   -0.9145    0.4055    0.0000 O   0  0  0  0  0  0  0  0  0  0  0  0
   -0.8337   -2.1914    0.0000 O   0  0  0  0  0  0  0  0  0  0  0  0
    0.6656   -2.1447    0.0000 C   0  0  0  0  0  0  0  0  0  0  0  0
    1.4557   -3.4197    0.0000 C   0  0  0  0  0  0  0  0  0  0  0  0
    1.3748   -0.8229    0.0000 C   0  0  0  0  0  0  0  0  0  0  0  0
    0.7224    0.5277    0.0000 C   0  0  0  0  0  0  0  0  0  0  0  0
    1.8053    1.5656    0.0000 C   0  0  0  0  0  0  0  0  0  0  0  0
    3.1270    0.8564    0.0000 C   0  0  0  0  0  0  0  0  0  0  0  0
    4.4777    1.5089    0.0000 C   0  0  0  0  0  0  0  0  0  0  0  0
    4.5880    3.0048    0.0000 O   0  0  0  0  0  0  0  0  0  0  0  0
    5.7181    0.6654    0.0000 C   0  0  0  0  0  0  0  0  0  0  0  0
    5.6078   -0.8305    0.0000 C   0  0  0  0  0  0  0  0  0  0  0  0
    6.8482   -1.6740    0.0000 C   0  0  0  0  0  0  0  0  0  0  0  0
    8.1988   -1.0216    0.0000 C   0  0  0  0  0  0  0  0  0  0  0  0
    8.3091    0.4744    0.0000 C   0  0  0  0  0  0  0  0  0  0  0  0
    9.6598    1.1268    0.0000 O   0  0  0  0  0  0  0  0  0  0  0  0
    7.0688    1.3179    0.0000 O   0  0  0  0  0  0  0  0  0  0  0  0
    2.8610   -0.6198    0.0000 O   0  0  0  0  0  0  0  0  0  0  0  0
   -6.1216   -1.0563    0.0000 C   0  0  0  0  0  0  0  0  0  0  0  0
   -7.6208   -1.1030    0.0000 C   0  0  0  0  0  0  0  0  0  0  0  0
  1  2  1  0
  2  3  1  0
  3  4  2  0
  4  5  1  0
  5  6  2  0
  6  7  1  0
  7  8  2  0
  8  9  1  0
  9 10  2  0
  9 11  1  0
 11 12  1  0
 12 13  1  6
 12 14  1  0
 14 15  1  6
 15 16  1  0
 17 16  1  6
 17 18  1  0
 18 19  1  6
 18 20  1  0
 20 21  1  6
 21 22  1  0
 22 23  2  0
 23 24  1  0
 24 25  2  0
 24 26  1  0
 17 27  1  0
  6 28  1  0
 28 29  2  0
 29  3  1  0
 27 14  1  0
 26 20  1  0
M  END
>  <identifier>  (453) 
CNP0080290.2

>  <canonical_smiles>  (453) 
COC1=CC=C(/C=C/C(=O)O[C@@H](C)[C@@H]2CC[C@H]([C@H](O)[C@H]3CC=CC(=O)O3)O2)C=C1

>  <standard_inchi>  (453) 
InChI=1S/C22H26O7/c1-14(27-21(24)13-8-15-6-9-16(26-2)10-7-15)17-11-12-19(28-17)22(25)18-4-3-5-20(23)29-18/h3,5-10,13-14,17-19,22,25H,4,11-12H2,1-2H3/b13-8+/t14-,17-,18+,19+,22+/m0/s1

>  <standard_inchi_key>  (453) 
PRXVDDVCKQCKQP-PPCLKGCXSA-N

>  <name>  (453) 
[(1S)-1-[(2S,5R)-5-[(S)-hydroxy-[(2R)-6-oxo-2,3-dihydropyran-2-yl]methyl]oxolan-2-yl]ethyl] (E)-3-(4-methoxyphenyl)prop-2-enoate

>  <iupac_name>  (453) 
[(1~{S})-1-[(2~{S},5~{R})-5-[(~{S})-hydroxy-[(2~{R})-6-oxo-2,3-dihydropyran-2-yl]methyl]tetrahydrofuran-2-yl]ethyl] (~{E})-3-(4-methoxyphenyl)prop-2-enoate

>  <annotation_level>  (453) 
5

>  <total_atom_count>  (453) 
55

>  <heavy_atom_count>  (453) 
29

>  <molecular_weight>  (453) 
402.44

>  <exact_molecular_weight>  (453) 
402.16785

>  <molecular_formula>  (453) 
C22H26O7

>  <alogp>  (453) 
2.42

>  <topological_polar_surface_area>  (453) 
91.29

>  <rotatable_bond_count>  (453) 
7

>  <hydrogen_bond_acceptors>  (453) 
7

>  <hydrogen_bond_donors>  (453) 
1

>  <hydrogen_bond_acceptors_lipinski>  (453) 
7

>  <hydrogen_bond_donors_lipinski>  (453) 
1

>  <lipinski_rule_of_five_violations>  (453) 
0

>  <aromatic_rings_count>  (453) 
1

>  <qed_drug_likeliness>  (453) 
0.55

>  <formal_charge>  (453) 
0

>  <fractioncsp3>  (453) 
0.46

>  <number_of_minimal_rings>  (453) 
3

>  <van_der_walls_volume>  (453) 
365.62

>  <contains_sugar>  (453) 
False

>  <contains_ring_sugars>  (453) 
False

>  <contains_linear_sugars>  (453) 
False

>  <murcko_framework>  (453) 
O(CC=Cc1ccccc1)CC2OC(CC2)CC3OCC=CC3

>  <np_likeness>  (453) 
1.61

>  <chemical_class>  (453) 
Cinnamic acids and derivatives

>  <chemical_sub_class>  (453) 
Cinnamic acids and derivatives

>  <chemical_super_class>  (453) 
Phenylpropanoids and polyketides

>  <direct_parent_classification>  (453) 
Cinnamic acids and derivatives

>  <np_classifier_pathway>  (453) 
Shikimates and Phenylpropanoids

>  <np_classifier_superclass>  (453) 
nan

>  <np_classifier_class>  (453) 
nan

>  <np_classifier_is_glycoside>  (453) 
False

>  <organisms>  (453) 
Hyptis brevipes

>  <collections>  (453) 
BIOFACQUIM|Latin America dataset|NPASS

>  <dois>  (453) 
10.1021/acs.jnatprod.6b00953

>  <synonyms>  (453) 
CHEMBL4090656|Brevipolide M

>  <cas>  (453) 
nan

$$$$

     RDKit          2D

 30 32  0  0  0  0  0  0  0  0999 V2000
   -9.3974   -0.6056    0.0000 C   0  0  0  0  0  0  0  0  0  0  0  0
   -8.0211   -0.0091    0.0000 C   0  0  0  0  0  0  0  0  0  0  0  0
   -6.8164   -0.9028    0.0000 C   0  0  0  0  0  0  0  0  0  0  0  0
   -5.4401   -0.3063    0.0000 C   0  0  0  0  0  0  0  0  0  0  0  0
   -4.2354   -1.2000    0.0000 C   0  0  0  0  0  0  0  0  0  0  0  0
   -2.8591   -0.6035    0.0000 C   0  0  0  0  0  0  0  0  0  0  0  0
   -2.6875    0.8866    0.0000 C   0  0  0  0  0  0  0  0  0  0  0  0
   -1.3112    1.4831    0.0000 C   0  0  0  0  0  0  0  0  0  0  0  0
   -0.1065    0.5894    0.0000 C   0  0  0  0  0  0  0  0  0  0  0  0
   -0.2781   -0.9007    0.0000 C   0  0  0  0  0  0  0  0  0  0  0  0
    0.9267   -1.7944    0.0000 O   0  0  0  0  0  0  0  0  0  0  0  0
   -1.6544   -1.4972    0.0000 C   0  0  0  0  0  0  0  0  0  0  0  0
   -1.8260   -2.9873    0.0000 C   0  0  0  0  0  0  0  0  0  0  0  0
   -0.6212   -3.8810    0.0000 O   0  0  0  0  0  0  0  0  0  0  0  0
   -0.7928   -5.3712    0.0000 O   0  0  0  0  0  0  0  0  0  0  0  0
    1.2698    1.1859    0.0000 C   0  0  0  0  0  0  0  0  0  0  0  0
    2.4745    0.2922    0.0000 C   0  0  0  0  0  0  0  0  0  0  0  0
    3.8509    0.8887    0.0000 C   0  0  0  0  0  0  0  0  0  0  0  0
    5.0556   -0.0050    0.0000 C   0  0  0  0  0  0  0  0  0  0  0  0
    4.8840   -1.4951    0.0000 O   0  0  0  0  0  0  0  0  0  0  0  0
    6.0887   -2.3888    0.0000 C   0  0  0  0  0  0  0  0  0  0  0  0
    5.9171   -3.8789    0.0000 C   0  0  0  0  0  0  0  0  0  0  0  0
    7.4650   -1.7923    0.0000 O   0  0  0  0  0  0  0  0  0  0  0  0
    4.0224    2.3789    0.0000 C   0  0  0  0  0  0  0  0  0  0  0  0
    2.8177    3.2726    0.0000 C   0  0  0  0  0  0  0  0  0  0  0  0
    1.4414    2.6761    0.0000 C   0  0  0  0  0  0  0  0  0  0  0  0
    0.2367    3.5698    0.0000 C   0  0  0  0  0  0  0  0  0  0  0  0
   -0.5897    4.8216    0.0000 C   0  0  0  0  0  0  0  0  0  0  0  0
    1.3260    4.6010    0.0000 C   0  0  0  0  0  0  0  0  0  0  0  0
   -1.1396    2.9733    0.0000 O   0  0  0  0  0  0  0  0  0  0  0  0
  1  2  1  0
  2  3  1  0
  3  4  1  0
  4  5  1  0
  5  6  1  0
  6  7  2  0
  7  8  1  0
  8  9  2  0
  9 10  1  0
 10 11  1  0
 10 12  2  0
 12 13  1  0
 13 14  1  0
 14 15  1  0
  9 16  1  0
 16 17  1  1
 17 18  2  0
 18 19  1  0
 19 20  1  0
 20 21  1  0
 21 22  1  0
 21 23  2  0
 18 24  1  0
 24 25  1  0
 26 25  1  6
 26 27  1  0
 27 28  1  0
 27 29  1  0
 27 30  1  0
 12  6  1  0
 26 16  1  0
 30  8  1  0
M  END
>  <identifier>  (454) 
CNP0436827.1

>  <canonical_smiles>  (454) 
CCCCCC1=CC2=C(C(O)=C1COO)[C@@H]1C=C(COC(C)=O)CC[C@H]1C(C)(C)O2

>  <standard_inchi>  (454) 
InChI=1S/C24H34O6/c1-5-6-7-8-17-12-21-22(23(26)19(17)14-29-27)18-11-16(13-28-15(2)25)9-10-20(18)24(3,4)30-21/h11-12,18,20,26-27H,5-10,13-14H2,1-4H3/t18-,20-/m1/s1

>  <standard_inchi_key>  (454) 
IOTSKNJKGNLLKB-UYAOXDASSA-N

>  <name>  (454) 
nan

>  <iupac_name>  (454) 
[(6~{a}~{R},10~{a}~{R})-2-(hydroperoxymethyl)-1-hydroxy-6,6-dimethyl-3-pentyl-6~{a},7,8,10~{a}-tetrahydrobenzo[c]chromen-9-yl]methyl acetate

>  <annotation_level>  (454) 
5

>  <total_atom_count>  (454) 
64

>  <heavy_atom_count>  (454) 
30

>  <molecular_weight>  (454) 
418.53

>  <exact_molecular_weight>  (454) 
418.23554

>  <molecular_formula>  (454) 
C24H34O6

>  <alogp>  (454) 
5.27

>  <topological_polar_surface_area>  (454) 
85.22

>  <rotatable_bond_count>  (454) 
8

>  <hydrogen_bond_acceptors>  (454) 
6

>  <hydrogen_bond_donors>  (454) 
2

>  <hydrogen_bond_acceptors_lipinski>  (454) 
6

>  <hydrogen_bond_donors_lipinski>  (454) 
2

>  <lipinski_rule_of_five_violations>  (454) 
1

>  <aromatic_rings_count>  (454) 
1

>  <qed_drug_likeliness>  (454) 
0.20

>  <formal_charge>  (454) 
0

>  <fractioncsp3>  (454) 
0.63

>  <number_of_minimal_rings>  (454) 
3

>  <van_der_walls_volume>  (454) 
397.61

>  <contains_sugar>  (454) 
False

>  <contains_ring_sugars>  (454) 
False

>  <contains_linear_sugars>  (454) 
False

>  <murcko_framework>  (454) 
O1c2ccccc2C3C=CCCC3C1

>  <np_likeness>  (454) 
2.21

>  <chemical_class>  (454) 
Benzopyrans

>  <chemical_sub_class>  (454) 
1-benzopyrans

>  <chemical_super_class>  (454) 
Organoheterocyclic compounds

>  <direct_parent_classification>  (454) 
2,2-dimethyl-1-benzopyrans

>  <np_classifier_pathway>  (454) 
Polyketides

>  <np_classifier_superclass>  (454) 
Meroterpenoids

>  <np_classifier_class>  (454) 
Cannabinoids

>  <np_classifier_is_glycoside>  (454) 
False

>  <organisms>  (454) 
Cannabis sativa

>  <collections>  (454) 
BIOFACQUIM|Latin America dataset

>  <dois>  (454) 
10.1021/acs.jnatprod.5b00065

>  <synonyms>  (454) 
11-acetoxy-\u0152\u00ee9-tetrahydrocannabinolic acid A

>  <cas>  (454) 
nan

$$$$

     RDKit          2D

 30 33  0  0  0  0  0  0  0  0999 V2000
   -7.2343    3.0259    0.0000 C   0  0  0  0  0  0  0  0  0  0  0  0
   -6.8319    1.5809    0.0000 C   0  0  0  0  0  0  0  0  0  0  0  0
   -5.3793    1.2068    0.0000 C   0  0  0  0  0  0  0  0  0  0  0  0
   -4.9769   -0.2382    0.0000 C   0  0  0  0  0  0  0  0  0  0  0  0
   -3.5243   -0.6123    0.0000 C   0  0  0  0  0  0  0  0  0  0  0  0
   -3.1220   -2.0573    0.0000 C   0  0  0  0  0  0  0  0  0  0  0  0
   -4.1722   -3.1283    0.0000 C   0  0  0  0  0  0  0  0  0  0  0  0
   -1.6694   -2.4314    0.0000 C   0  0  0  0  0  0  0  0  0  0  0  0
   -1.1182   -3.8264    0.0000 C   0  0  0  0  0  0  0  0  0  0  0  0
    0.3789   -3.7333    0.0000 C   0  0  0  0  0  0  0  0  0  0  0  0
    0.7530   -2.2807    0.0000 C   0  0  0  0  0  0  0  0  0  0  0  0
    2.0828   -1.5867    0.0000 C   0  0  0  0  0  0  0  0  0  0  0  0
    3.3487   -2.3913    0.0000 C   0  0  0  0  0  0  0  0  0  0  0  0
    4.6785   -1.6973    0.0000 C   0  0  0  0  0  0  0  0  0  0  0  0
    4.7424   -0.1987    0.0000 C   0  0  0  0  0  0  0  0  0  0  0  0
    6.0722    0.4953    0.0000 C   0  0  0  0  0  0  0  0  0  0  0  0
    6.1361    1.9940    0.0000 C   0  0  0  0  0  0  0  0  0  0  0  0
    7.4659    2.6880    0.0000 O   0  0  0  0  0  0  0  0  0  0  0  0
    4.8701    2.7986    0.0000 C   0  0  0  0  0  0  0  0  0  0  0  0
    3.5403    2.1046    0.0000 C   0  0  0  0  0  0  0  0  0  0  0  0
    3.4765    0.6060    0.0000 C   0  0  0  0  0  0  0  0  0  0  0  0
    2.2105    1.4106    0.0000 C   0  0  0  0  0  0  0  0  0  0  0  0
    2.1467   -0.0880    0.0000 C   0  0  0  0  0  0  0  0  0  0  0  0
    0.8807    0.7166    0.0000 C   0  0  0  0  0  0  0  0  0  0  0  0
   -0.4490    0.0226    0.0000 C   0  0  0  0  0  0  0  0  0  0  0  0
   -0.5129   -1.4761    0.0000 C   0  0  0  0  0  0  0  0  0  0  0  0
   -1.8560   -0.8081    0.0000 C   0  0  0  0  0  0  0  0  0  0  0  0
   -4.3291    2.2778    0.0000 C   0  0  0  0  0  0  0  0  0  0  0  0
   -4.7314    3.7228    0.0000 C   0  0  0  0  0  0  0  0  0  0  0  0
   -2.8764    1.9037    0.0000 C   0  0  0  0  0  0  0  0  0  0  0  0
  1  2  1  0
  3  2  1  6
  3  4  1  0
  4  5  2  3
  5  6  1  0
  6  7  1  1
  6  8  1  0
  8  9  1  6
  9 10  1  0
 11 10  1  6
 11 12  1  0
 12 13  2  0
 13 14  1  0
 15 14  1  6
 15 16  1  0
 16 17  1  0
 17 18  1  6
 17 19  1  0
 19 20  1  0
 20 21  1  0
 21 22  1  6
 21 23  1  0
 23 24  1  6
 24 25  1  0
 25 26  1  0
 26 27  1  6
  3 28  1  0
 28 29  1  0
 28 30  1  0
 26  8  1  0
 26 11  1  0
 23 12  1  0
 21 15  1  0
M  END
>  <identifier>  (455) 
CNP0229778.1

>  <canonical_smiles>  (455) 
CC[C@@H](C=C[C@H](C)[C@H]1CC[C@H]2C3=CC[C@H]4C[C@@H](O)CC[C@]4(C)[C@H]3CC[C@]12C)C(C)C

>  <standard_inchi>  (455) 
InChI=1S/C29H48O/c1-7-21(19(2)3)9-8-20(4)25-12-13-26-24-11-10-22-18-23(30)14-16-28(22,5)27(24)15-17-29(25,26)6/h8-9,11,19-23,25-27,30H,7,10,12-18H2,1-6H3/t20-,21-,22-,23-,25+,26-,27-,28-,29+/m0/s1

>  <standard_inchi_key>  (455) 
JZVFJDZBLUFKCA-VOTKSBHYSA-N

>  <name>  (455) 
nan

>  <iupac_name>  (455) 
(3~{S},5~{S},9~{R},10~{S},13~{R},14~{R},17~{R})-17-[(1~{S},4~{R})-4-ethyl-1,5-dimethyl-hex-2-enyl]-10,13-dimethyl-2,3,4,5,6,9,11,12,14,15,16,17-dodecahydro-1~{H}-cyclopenta[a]phenanthren-3-ol

>  <annotation_level>  (455) 
5

>  <total_atom_count>  (455) 
78

>  <heavy_atom_count>  (455) 
30

>  <molecular_weight>  (455) 
412.7

>  <exact_molecular_weight>  (455) 
412.37052

>  <molecular_formula>  (455) 
C29H48O

>  <alogp>  (455) 
7.80

>  <topological_polar_surface_area>  (455) 
20.23

>  <rotatable_bond_count>  (455) 
5

>  <hydrogen_bond_acceptors>  (455) 
1

>  <hydrogen_bond_donors>  (455) 
1

>  <hydrogen_bond_acceptors_lipinski>  (455) 
1

>  <hydrogen_bond_donors_lipinski>  (455) 
1

>  <lipinski_rule_of_five_violations>  (455) 
1

>  <aromatic_rings_count>  (455) 
0

>  <qed_drug_likeliness>  (455) 
0.46

>  <formal_charge>  (455) 
0

>  <fractioncsp3>  (455) 
0.86

>  <number_of_minimal_rings>  (455) 
4

>  <van_der_walls_volume>  (455) 
440.35

>  <contains_sugar>  (455) 
False

>  <contains_ring_sugars>  (455) 
False

>  <contains_linear_sugars>  (455) 
False

>  <murcko_framework>  (455) 
C1=C2C3CCCC3CCC2C4CCCCC4C1

>  <np_likeness>  (455) 
2.85

>  <chemical_class>  (455) 
Steroids and steroid derivatives

>  <chemical_sub_class>  (455) 
Stigmastanes and derivatives

>  <chemical_super_class>  (455) 
Lipids and lipid-like molecules

>  <direct_parent_classification>  (455) 
Stigmastanes and derivatives

>  <np_classifier_pathway>  (455) 
Terpenoids

>  <np_classifier_superclass>  (455) 
Steroids

>  <np_classifier_class>  (455) 
Stigmastane steroids

>  <np_classifier_is_glycoside>  (455) 
False

>  <organisms>  (455) 
Heterotheca inuloides

>  <collections>  (455) 
BIOFACQUIM|Latin America dataset

>  <dois>  (455) 
10.1016/j.jep.2015.08.055

>  <synonyms>  (455) 
\u0152\u00b1-spinasterol

>  <cas>  (455) 
nan

$$$$

     RDKit          2D

 12 12  0  0  0  0  0  0  0  0999 V2000
    3.0000    0.0000    0.0000 O   0  0  0  0  0  0  0  0  0  0  0  0
    1.5000    0.0000    0.0000 C   0  0  0  0  0  0  0  0  0  0  0  0
    0.7500   -1.2990    0.0000 C   0  0  0  0  0  0  0  0  0  0  0  0
    1.5000   -2.5981    0.0000 O   0  0  0  0  0  0  0  0  0  0  0  0
   -0.7500   -1.2990    0.0000 C   0  0  0  0  0  0  0  0  0  0  0  0
   -1.5000   -2.5981    0.0000 O   0  0  0  0  0  0  0  0  0  0  0  0
   -1.5000    0.0000    0.0000 C   0  0  0  0  0  0  0  0  0  0  0  0
   -3.0000    0.0000    0.0000 O   0  0  0  0  0  0  0  0  0  0  0  0
   -0.7500    1.2990    0.0000 C   0  0  0  0  0  0  0  0  0  0  0  0
   -1.5000    2.5981    0.0000 O   0  0  0  0  0  0  0  0  0  0  0  0
    0.7500    1.2990    0.0000 C   0  0  0  0  0  0  0  0  0  0  0  0
    1.5000    2.5981    0.0000 O   0  0  0  0  0  0  0  0  0  0  0  0
  2  1  1  1
  2  3  1  0
  3  4  1  6
  3  5  1  0
  5  6  1  6
  5  7  1  0
  7  8  1  1
  7  9  1  0
  9 10  1  6
  9 11  1  0
 11 12  1  1
 11  2  1  0
M  END
>  <identifier>  (456) 
CNP0254016.1

>  <canonical_smiles>  (456) 
O[C@H]1[C@H](O)[C@H](O)[C@@H](O)[C@H](O)[C@H]1O

>  <standard_inchi>  (456) 
InChI=1S/C6H12O6/c7-1-2(8)4(10)6(12)5(11)3(1)9/h1-12H/t1-,2-,3-,4-,5+,6+/m0/s1

>  <standard_inchi_key>  (456) 
CDAISMWEOUEBRE-LKPKBOIGSA-N

>  <name>  (456) 
D-chiro-inositol

>  <iupac_name>  (456) 
cyclohexane-1,2,3,4,5,6-hexol

>  <annotation_level>  (456) 
5

>  <total_atom_count>  (456) 
24

>  <heavy_atom_count>  (456) 
12

>  <molecular_weight>  (456) 
180.16

>  <exact_molecular_weight>  (456) 
180.06339

>  <molecular_formula>  (456) 
C6H12O6

>  <alogp>  (456) 
-3.83

>  <topological_polar_surface_area>  (456) 
121.38

>  <rotatable_bond_count>  (456) 
0

>  <hydrogen_bond_acceptors>  (456) 
6

>  <hydrogen_bond_donors>  (456) 
6

>  <hydrogen_bond_acceptors_lipinski>  (456) 
6

>  <hydrogen_bond_donors_lipinski>  (456) 
6

>  <lipinski_rule_of_five_violations>  (456) 
1

>  <aromatic_rings_count>  (456) 
0

>  <qed_drug_likeliness>  (456) 
0.23

>  <formal_charge>  (456) 
0

>  <fractioncsp3>  (456) 
1.00

>  <number_of_minimal_rings>  (456) 
1

>  <van_der_walls_volume>  (456) 
151.26

>  <contains_sugar>  (456) 
False

>  <contains_ring_sugars>  (456) 
False

>  <contains_linear_sugars>  (456) 
False

>  <murcko_framework>  (456) 
C1CCCCC1

>  <np_likeness>  (456) 
0.68

>  <chemical_class>  (456) 
Organooxygen compounds

>  <chemical_sub_class>  (456) 
Alcohols and polyols

>  <chemical_super_class>  (456) 
Organic oxygen compounds

>  <direct_parent_classification>  (456) 
Cyclohexanols

>  <np_classifier_pathway>  (456) 
Carbohydrates

>  <np_classifier_superclass>  (456) 
Polyols

>  <np_classifier_class>  (456) 
Cyclitols

>  <np_classifier_is_glycoside>  (456) 
False

>  <organisms>  (456) 
Acacia aulacocarpa|Anemone flaccida|Apis cerana|Ardisia neriifolia|Aspidosperma subincanum|Ceratonia siliqua|Cryptocarya aschersoniana|Ercolania funerea|Eupatorium argentinum|Gomophia watsoni|Guatteria boliviana|Helichrysum stirlingii|Heptacyclum zenkeri|Heterotheca inuloides|Jaborosa parviflora|Juniperus brevifolia|Lonicera japonica|Mallotus nudiflorus|Neolentinus lepideus|Oophaga speciosa|Ormocarpum kirkii|Ovis aries|Pamburus missionis|Peritassa compta|Picea vulgaris|Pithecellobium dulce|Pithomyces chartarum|Psiadia dentata|Rheedia acuminata|Ruppia maritima|Stellaria heterophylla|Swertia punctata|Symphyocladia latiuscula|Tephrosia obovata|Zingiber montanum

>  <collections>  (456) 
AnalytiCon Discovery NPs|BIOFACQUIM|CMAUP (cCollective molecular activities of useful plants)|FooDB|Latin America dataset|NPASS|TCMDB-Taiwan (Traditional Chinese Medicine database)

>  <dois>  (456) 
10.1016/j.jep.2015.08.055

>  <synonyms>  (456) 
D-chiro-inositol|Chiro-Inositol|Levoinositol

>  <cas>  (456) 
nan

$$$$

     RDKit          2D

 18 20  0  0  0  0  0  0  0  0999 V2000
    3.3054   -1.7287    0.0000 C   0  0  0  0  0  0  0  0  0  0  0  0
    2.8898   -0.2875    0.0000 C   0  0  0  0  0  0  0  0  0  0  0  0
    4.3310    0.1281    0.0000 C   0  0  0  0  0  0  0  0  0  0  0  0
    2.4742    1.1538    0.0000 C   0  0  0  0  0  0  0  0  0  0  0  0
    1.0329    0.7382    0.0000 C   0  0  0  0  0  0  0  0  0  0  0  0
    1.1898    1.6099    0.0000 C   0  0  0  0  0  0  0  0  0  0  0  0
    1.4485   -0.7031    0.0000 C   0  0  0  0  0  0  0  0  0  0  0  0
    0.5808   -1.9266    0.0000 C   0  0  0  0  0  0  0  0  0  0  0  0
   -0.9168   -2.0111    0.0000 C   0  0  0  0  0  0  0  0  0  0  0  0
   -1.8560   -0.8074    0.0000 C   0  0  0  0  0  0  0  0  0  0  0  0
   -1.9957   -2.3009    0.0000 C   0  0  0  0  0  0  0  0  0  0  0  0
   -0.4928   -0.1816    0.0000 C   0  0  0  0  0  0  0  0  0  0  0  0
   -0.3531    1.3119    0.0000 C   0  0  0  0  0  0  0  0  0  0  0  0
    0.4009    1.7768    0.0000 O   0  0  0  0  0  0  0  0  0  0  0  0
   -1.5766    2.1796    0.0000 C   0  0  0  0  0  0  0  0  0  0  0  0
   -2.9399    1.5538    0.0000 C   0  0  0  0  0  0  0  0  0  0  0  0
   -3.0795    0.0603    0.0000 C   0  0  0  0  0  0  0  0  0  0  0  0
   -4.4428   -0.5655    0.0000 O   0  0  0  0  0  0  0  0  0  0  0  0
  1  2  1  0
  2  3  1  0
  2  4  1  0
  4  5  1  0
  5  6  1  6
  5  7  1  0
  7  8  1  6
  8  9  1  0
  9 10  1  0
 10 11  1  1
 10 12  1  0
 12 13  1  0
 13 14  1  1
 13 15  1  0
 15 16  1  0
 16 17  1  0
 17 18  1  1
  7  2  1  0
 17 10  1  0
 13  5  1  0
M  END
>  <identifier>  (457) 
CNP0436847.1

>  <canonical_smiles>  (457) 
CC1(C)C[C@@]2(C)[C@H]1CC[C@@]1(C)C[C@]2(O)CC[C@@H]1O

>  <standard_inchi>  (457) 
InChI=1S/C16H28O2/c1-13(2)9-15(4)11(13)5-7-14(3)10-16(15,18)8-6-12(14)17/h11-12,17-18H,5-10H2,1-4H3/t11-,12-,14-,15-,16+/m0/s1

>  <standard_inchi_key>  (457) 
USZIFKZVBTZOEJ-YERCRUGSSA-N

>  <name>  (457) 
nan

>  <iupac_name>  (457) 
(1~{R},2~{S},5~{S},8~{S},9~{S})-2,4,4,8-tetramethyltricyclo[6.3.1.0^{2,5}]dodecane-1,9-diol

>  <annotation_level>  (457) 
5

>  <total_atom_count>  (457) 
46

>  <heavy_atom_count>  (457) 
18

>  <molecular_weight>  (457) 
252.4

>  <exact_molecular_weight>  (457) 
252.20893

>  <molecular_formula>  (457) 
C16H28O2

>  <alogp>  (457) 
3.11

>  <topological_polar_surface_area>  (457) 
40.46

>  <rotatable_bond_count>  (457) 
0

>  <hydrogen_bond_acceptors>  (457) 
2

>  <hydrogen_bond_donors>  (457) 
2

>  <hydrogen_bond_acceptors_lipinski>  (457) 
2

>  <hydrogen_bond_donors_lipinski>  (457) 
2

>  <lipinski_rule_of_five_violations>  (457) 
0

>  <aromatic_rings_count>  (457) 
0

>  <qed_drug_likeliness>  (457) 
0.70

>  <formal_charge>  (457) 
0

>  <fractioncsp3>  (457) 
1.00

>  <number_of_minimal_rings>  (457) 
3

>  <van_der_walls_volume>  (457) 
256.35

>  <contains_sugar>  (457) 
False

>  <contains_ring_sugars>  (457) 
False

>  <contains_linear_sugars>  (457) 
False

>  <murcko_framework>  (457) 
C1CC2CCC3CCC3C(C1)C2

>  <np_likeness>  (457) 
2.87

>  <chemical_class>  (457) 
Organooxygen compounds

>  <chemical_sub_class>  (457) 
Alcohols and polyols

>  <chemical_super_class>  (457) 
Organic oxygen compounds

>  <direct_parent_classification>  (457) 
Tertiary alcohols

>  <np_classifier_pathway>  (457) 
Terpenoids

>  <np_classifier_superclass>  (457) 
Sesquiterpenoids

>  <np_classifier_class>  (457) 
Caryolane sesquiterpenoids

>  <np_classifier_is_glycoside>  (457) 
False

>  <organisms>  (457) 
Heterotheca inuloides

>  <collections>  (457) 
BIOFACQUIM|Latin America dataset

>  <dois>  (457) 
10.1016/j.jep.2015.08.055

>  <synonyms>  (457) 
caryolan-1 9\u0152\u2264-diol

>  <cas>  (457) 
nan

$$$$

     RDKit          2D

 24 26  0  0  0  0  0  0  0  0999 V2000
   -0.1167   -3.2098    0.0000 C   0  0  0  0  0  0  0  0  0  0  0  0
   -0.6731   -1.8168    0.0000 C   0  0  0  0  0  0  0  0  0  0  0  0
   -2.1577   -1.6022    0.0000 C   0  0  0  0  0  0  0  0  0  0  0  0
   -2.7141   -0.2092    0.0000 C   0  0  0  0  0  0  0  0  0  0  0  0
   -4.1987    0.0054    0.0000 C   0  0  0  0  0  0  0  0  0  0  0  0
   -5.1268   -1.1729    0.0000 C   0  0  0  0  0  0  0  0  0  0  0  0
   -6.6114   -0.9583    0.0000 C   0  0  0  0  0  0  0  0  0  0  0  0
   -4.5704   -2.5659    0.0000 C   0  0  0  0  0  0  0  0  0  0  0  0
   -4.7551    1.3984    0.0000 C   0  0  0  0  0  0  0  0  0  0  0  0
   -3.8269    2.5768    0.0000 C   0  0  0  0  0  0  0  0  0  0  0  0
   -2.3424    2.3621    0.0000 C   0  0  0  0  0  0  0  0  0  0  0  0
   -1.4142    3.5405    0.0000 C   0  0  0  0  0  0  0  0  0  0  0  0
   -1.7860    0.9692    0.0000 C   0  0  0  0  0  0  0  0  0  0  0  0
   -0.3014    0.7545    0.0000 C   0  0  0  0  0  0  0  0  0  0  0  0
    0.2550   -0.6385    0.0000 C   0  0  0  0  0  0  0  0  0  0  0  0
    1.7396   -0.8531    0.0000 O   0  0  0  0  0  0  0  0  0  0  0  0
    2.6677    0.3253    0.0000 C   0  0  0  0  0  0  0  0  0  0  0  0
    2.1113    1.7183    0.0000 O   0  0  0  0  0  0  0  0  0  0  0  0
    4.1523    0.1107    0.0000 C   0  0  0  0  0  0  0  0  0  0  0  0
    4.7087   -1.2823    0.0000 C   0  0  0  0  0  0  0  0  0  0  0  0
    6.1933   -1.4969    0.0000 C   0  0  0  0  0  0  0  0  0  0  0  0
    7.1214   -0.3186    0.0000 C   0  0  0  0  0  0  0  0  0  0  0  0
    6.5650    1.0744    0.0000 C   0  0  0  0  0  0  0  0  0  0  0  0
    5.0805    1.2890    0.0000 C   0  0  0  0  0  0  0  0  0  0  0  0
  1  2  1  0
  2  3  2  0
  3  4  1  0
  4  5  2  0
  5  6  1  0
  6  7  1  0
  6  8  1  0
  5  9  1  0
  9 10  2  0
 10 11  1  0
 11 12  1  0
 11 13  2  0
 13 14  1  0
 14 15  2  0
 15 16  1  0
 16 17  1  0
 17 18  2  0
 17 19  1  0
 19 20  2  0
 20 21  1  0
 21 22  2  0
 22 23  1  0
 23 24  2  0
 15  2  1  0
 24 19  1  0
 13  4  1  0
M  END
>  <identifier>  (458) 
CNP0436835.0

>  <canonical_smiles>  (458) 
CC1=CC2=C(C(C)C)C=CC(C)=C2C=C1OC(=O)C1=CC=CC=C1

>  <standard_inchi>  (458) 
InChI=1S/C22H22O2/c1-14(2)18-11-10-15(3)19-13-21(16(4)12-20(18)19)24-22(23)17-8-6-5-7-9-17/h5-14H,1-4H3

>  <standard_inchi_key>  (458) 
MHTYQKSVNSMROU-UHFFFAOYSA-N

>  <name>  (458) 
(3,8-dimethyl-5-propan-2-ylnaphthalen-2-yl) benzoate

>  <iupac_name>  (458) 
(5-isopropyl-3,8-dimethyl-2-naphthyl) benzoate

>  <annotation_level>  (458) 
5

>  <total_atom_count>  (458) 
46

>  <heavy_atom_count>  (458) 
24

>  <molecular_weight>  (458) 
318.42

>  <exact_molecular_weight>  (458) 
318.16198

>  <molecular_formula>  (458) 
C22H22O2

>  <alogp>  (458) 
5.80

>  <topological_polar_surface_area>  (458) 
26.30

>  <rotatable_bond_count>  (458) 
3

>  <hydrogen_bond_acceptors>  (458) 
2

>  <hydrogen_bond_donors>  (458) 
0

>  <hydrogen_bond_acceptors_lipinski>  (458) 
2

>  <hydrogen_bond_donors_lipinski>  (458) 
0

>  <lipinski_rule_of_five_violations>  (458) 
1

>  <aromatic_rings_count>  (458) 
3

>  <qed_drug_likeliness>  (458) 
0.45

>  <formal_charge>  (458) 
0

>  <fractioncsp3>  (458) 
0.23

>  <number_of_minimal_rings>  (458) 
3

>  <van_der_walls_volume>  (458) 
306.67

>  <contains_sugar>  (458) 
False

>  <contains_ring_sugars>  (458) 
False

>  <contains_linear_sugars>  (458) 
False

>  <murcko_framework>  (458) 
O(c1ccc2ccccc2c1)Cc3ccccc3

>  <np_likeness>  (458) 
0.11

>  <chemical_class>  (458) 
Prenol lipids

>  <chemical_sub_class>  (458) 
Sesquiterpenoids

>  <chemical_super_class>  (458) 
Lipids and lipid-like molecules

>  <direct_parent_classification>  (458) 
Sesquiterpenoids

>  <np_classifier_pathway>  (458) 
Terpenoids

>  <np_classifier_superclass>  (458) 
Sesquiterpenoids

>  <np_classifier_class>  (458) 
Cadinane sesquiterpenoids

>  <np_classifier_is_glycoside>  (458) 
False

>  <organisms>  (458) 
Heterotheca inuloides

>  <collections>  (458) 
BIOFACQUIM|Latin America dataset

>  <dois>  (458) 
10.1016/j.jep.2015.08.055

>  <synonyms>  (458) 
CHEMBL4066215|7-benzoxycadalene

>  <cas>  (458) 
nan

$$$$

     RDKit          2D

 16 17  0  0  0  0  0  0  0  0999 V2000
    2.7947   -2.6835    0.0000 C   0  0  0  0  0  0  0  0  0  0  0  0
    2.0088   -1.4059    0.0000 C   0  0  0  0  0  0  0  0  0  0  0  0
    0.5093   -1.4478    0.0000 C   0  0  0  0  0  0  0  0  0  0  0  0
   -0.2766   -0.1702    0.0000 C   0  0  0  0  0  0  0  0  0  0  0  0
    0.4369    1.1493    0.0000 C   0  0  0  0  0  0  0  0  0  0  0  0
    1.9363    1.1912    0.0000 C   0  0  0  0  0  0  0  0  0  0  0  0
    2.7222   -0.0865    0.0000 C   0  0  0  0  0  0  0  0  0  0  0  0
    4.2216   -0.0446    0.0000 O   0  0  0  0  0  0  0  0  0  0  0  0
   -0.3491    2.4269    0.0000 C   0  0  0  0  0  0  0  0  0  0  0  0
    0.3644    3.7464    0.0000 C   0  0  0  0  0  0  0  0  0  0  0  0
   -1.8485    2.3850    0.0000 C   0  0  0  0  0  0  0  0  0  0  0  0
   -2.5620    1.0656    0.0000 C   0  0  0  0  0  0  0  0  0  0  0  0
   -1.7760   -0.2120    0.0000 C   0  0  0  0  0  0  0  0  0  0  0  0
   -2.4895   -1.5315    0.0000 C   0  0  0  0  0  0  0  0  0  0  0  0
   -3.9889   -1.5733    0.0000 C   0  0  0  0  0  0  0  0  0  0  0  0
   -1.7035   -2.8091    0.0000 C   0  0  0  0  0  0  0  0  0  0  0  0
  1  2  1  0
  2  3  2  0
  3  4  1  0
  4  5  2  0
  5  6  1  0
  6  7  2  0
  7  8  1  0
  5  9  1  0
  9 10  1  0
  9 11  1  0
 11 12  1  0
 12 13  1  0
 13 14  1  1
 14 15  1  0
 14 16  1  0
  7  2  1  0
 13  4  1  0
M  END
>  <identifier>  (459) 
CNP0288301.1

>  <canonical_smiles>  (459) 
CC1=CC2=C(C=C1O)C(C)CC[C@@H]2C(C)C

>  <standard_inchi>  (459) 
InChI=1S/C15H22O/c1-9(2)12-6-5-10(3)13-8-15(16)11(4)7-14(12)13/h7-10,12,16H,5-6H2,1-4H3/t10?,12-/m1/s1

>  <standard_inchi_key>  (459) 
UTBFITAKBXMXCZ-TVKKRMFBSA-N

>  <name>  (459) 
nan

>  <iupac_name>  (459) 
(1~{R})-1-isopropyl-4,7-dimethyl-tetralin-6-ol

>  <annotation_level>  (459) 
5

>  <total_atom_count>  (459) 
38

>  <heavy_atom_count>  (459) 
16

>  <molecular_weight>  (459) 
218.34

>  <exact_molecular_weight>  (459) 
218.16707

>  <molecular_formula>  (459) 
C15H22O

>  <alogp>  (459) 
4.34

>  <topological_polar_surface_area>  (459) 
20.23

>  <rotatable_bond_count>  (459) 
1

>  <hydrogen_bond_acceptors>  (459) 
1

>  <hydrogen_bond_donors>  (459) 
1

>  <hydrogen_bond_acceptors_lipinski>  (459) 
1

>  <hydrogen_bond_donors_lipinski>  (459) 
1

>  <lipinski_rule_of_five_violations>  (459) 
0

>  <aromatic_rings_count>  (459) 
1

>  <qed_drug_likeliness>  (459) 
0.74

>  <formal_charge>  (459) 
0

>  <fractioncsp3>  (459) 
0.60

>  <number_of_minimal_rings>  (459) 
2

>  <van_der_walls_volume>  (459) 
229.02

>  <contains_sugar>  (459) 
False

>  <contains_ring_sugars>  (459) 
False

>  <contains_linear_sugars>  (459) 
False

>  <murcko_framework>  (459) 
c1ccc2c(c1)CCCC2

>  <np_likeness>  (459) 
1.86

>  <chemical_class>  (459) 
Prenol lipids

>  <chemical_sub_class>  (459) 
Sesquiterpenoids

>  <chemical_super_class>  (459) 
Lipids and lipid-like molecules

>  <direct_parent_classification>  (459) 
Sesquiterpenoids

>  <np_classifier_pathway>  (459) 
Terpenoids

>  <np_classifier_superclass>  (459) 
Sesquiterpenoids

>  <np_classifier_class>  (459) 
Cadinane sesquiterpenoids

>  <np_classifier_is_glycoside>  (459) 
False

>  <organisms>  (459) 
Heterotheca inuloides

>  <collections>  (459) 
BIOFACQUIM|Latin America dataset

>  <dois>  (459) 
10.1016/j.jep.2015.08.055

>  <synonyms>  (459) 
7-hydroxycalamenene

>  <cas>  (459) 
nan

$$$$

     RDKit          2D

 23 25  0  0  0  0  0  0  0  0999 V2000
   -6.8006   -2.2831    0.0000 C   0  0  0  0  0  0  0  0  0  0  0  0
   -5.3265   -2.5606    0.0000 O   0  0  0  0  0  0  0  0  0  0  0  0
   -4.3491   -1.4227    0.0000 C   0  0  0  0  0  0  0  0  0  0  0  0
   -4.8459   -0.0073    0.0000 C   0  0  0  0  0  0  0  0  0  0  0  0
   -3.8685    1.1305    0.0000 C   0  0  0  0  0  0  0  0  0  0  0  0
   -4.3652    2.5459    0.0000 O   0  0  0  0  0  0  0  0  0  0  0  0
   -2.3944    0.8530    0.0000 C   0  0  0  0  0  0  0  0  0  0  0  0
   -1.4170    1.9909    0.0000 C   0  0  0  0  0  0  0  0  0  0  0  0
   -1.9138    3.4063    0.0000 O   0  0  0  0  0  0  0  0  0  0  0  0
    0.0571    1.7134    0.0000 C   0  0  0  0  0  0  0  0  0  0  0  0
    0.5538    0.2980    0.0000 C   0  0  0  0  0  0  0  0  0  0  0  0
    2.0279    0.0206    0.0000 C   0  0  0  0  0  0  0  0  0  0  0  0
    2.5247   -1.3948    0.0000 C   0  0  0  0  0  0  0  0  0  0  0  0
    3.9988   -1.6723    0.0000 C   0  0  0  0  0  0  0  0  0  0  0  0
    4.9762   -0.5344    0.0000 C   0  0  0  0  0  0  0  0  0  0  0  0
    6.4503   -0.8119    0.0000 O   0  0  0  0  0  0  0  0  0  0  0  0
    6.9470   -2.2273    0.0000 C   0  0  0  0  0  0  0  0  0  0  0  0
    4.4794    0.8809    0.0000 C   0  0  0  0  0  0  0  0  0  0  0  0
    5.4568    2.0188    0.0000 O   0  0  0  0  0  0  0  0  0  0  0  0
    3.0053    1.1584    0.0000 C   0  0  0  0  0  0  0  0  0  0  0  0
   -0.4235   -0.8398    0.0000 O   0  0  0  0  0  0  0  0  0  0  0  0
   -1.8977   -0.5623    0.0000 C   0  0  0  0  0  0  0  0  0  0  0  0
   -2.8750   -1.7002    0.0000 C   0  0  0  0  0  0  0  0  0  0  0  0
  1  2  1  0
  2  3  1  0
  3  4  2  0
  4  5  1  0
  5  6  1  0
  5  7  2  0
  7  8  1  0
  8  9  2  0
  8 10  1  0
 10 11  1  0
 11 12  1  1
 12 13  2  0
 13 14  1  0
 14 15  2  0
 15 16  1  0
 16 17  1  0
 15 18  1  0
 18 19  1  0
 18 20  2  0
 11 21  1  0
 21 22  1  0
 22 23  2  0
 23  3  1  0
 22  7  1  0
 20 12  1  0
M  END
>  <identifier>  (460) 
CNP0222941.1

>  <canonical_smiles>  (460) 
COC1=CC(O)=C2C(=O)C[C@@H](C3=CC=C(OC)C(O)=C3)OC2=C1

>  <standard_inchi>  (460) 
InChI=1S/C17H16O6/c1-21-10-6-12(19)17-13(20)8-15(23-16(17)7-10)9-3-4-14(22-2)11(18)5-9/h3-7,15,18-19H,8H2,1-2H3/t15-/m0/s1

>  <standard_inchi_key>  (460) 
LWBHKKLWSUFUNZ-HNNXBMFYSA-N

>  <name>  (460) 
28590-40-1

>  <iupac_name>  (460) 
(2~{S})-5-hydroxy-2-(3-hydroxy-4-methoxy-phenyl)-7-methoxy-chroman-4-one

>  <annotation_level>  (460) 
5

>  <total_atom_count>  (460) 
39

>  <heavy_atom_count>  (460) 
23

>  <molecular_weight>  (460) 
316.31

>  <exact_molecular_weight>  (460) 
316.09469

>  <molecular_formula>  (460) 
C17H16O6

>  <alogp>  (460) 
2.82

>  <topological_polar_surface_area>  (460) 
85.22

>  <rotatable_bond_count>  (460) 
3

>  <hydrogen_bond_acceptors>  (460) 
6

>  <hydrogen_bond_donors>  (460) 
2

>  <hydrogen_bond_acceptors_lipinski>  (460) 
6

>  <hydrogen_bond_donors_lipinski>  (460) 
2

>  <lipinski_rule_of_five_violations>  (460) 
0

>  <aromatic_rings_count>  (460) 
2

>  <qed_drug_likeliness>  (460) 
0.91

>  <formal_charge>  (460) 
0

>  <fractioncsp3>  (460) 
0.24

>  <number_of_minimal_rings>  (460) 
3

>  <van_der_walls_volume>  (460) 
272.48

>  <contains_sugar>  (460) 
False

>  <contains_ring_sugars>  (460) 
False

>  <contains_linear_sugars>  (460) 
False

>  <murcko_framework>  (460) 
O1c2ccccc2CCC1c3ccccc3

>  <np_likeness>  (460) 
1.41

>  <chemical_class>  (460) 
Flavonoids

>  <chemical_sub_class>  (460) 
O-methylated flavonoids

>  <chemical_super_class>  (460) 
Phenylpropanoids and polyketides

>  <direct_parent_classification>  (460) 
4'-O-methylated flavonoids

>  <np_classifier_pathway>  (460) 
Shikimates and Phenylpropanoids

>  <np_classifier_superclass>  (460) 
Flavonoids

>  <np_classifier_class>  (460) 
Chalcones

>  <np_classifier_is_glycoside>  (460) 
False

>  <organisms>  (460) 
Heterotheca inuloides|Humulus scandens|Kopsia albiflora|Notholaena spp.|Passiflora foetida|Persica vulgaris|Prunus davidiana|Prunus persica|Ribes sanguineum|Stachys chinensis|Talaromyces avellaneus|Vitex rotundifolia

>  <collections>  (460) 
Australian natural products|BIOFACQUIM|CMAUP (cCollective molecular activities of useful plants)|KNApSaCK|Latin America dataset|NPASS|Super Natural II|TCMDB-Taiwan (Traditional Chinese Medicine database)|TIPdb (database of Taiwan indigenous plants)

>  <dois>  (460) 
10.1016/j.jep.2015.08.055

>  <synonyms>  (460) 
4H-1-Benzopyran-4-one| 2|3-dihydro-5-hydroxy-2-(3-hydroxy-4-methoxyphenyl)-7-methoxy-| (2S)-|Hesperetin-7-methyl ether|7-METHOXYHESPERETIN|CHEMBL2234487|SCHEMBL22485515|HY-N7636|AKOS040760625|MS-24656|CS-0134905|G18088|(S)-5-Hydroxy-2-(3-hydroxy-4-methoxyphenyl)-7-methoxychroman-4-one|(2S)-5-hydroxy-2-(3-hydroxy-4-methoxyphenyl)-7-methoxy-2|3-dihydro-1-benzopyran-4-one|Eriodictyol-7 4\u201a\u00c4\u2264-dimethyl ether|Persicogenin

>  <cas>  (460) 
nan

$$$$

     RDKit          2D

 33 37  0  0  0  0  0  0  0  0999 V2000
    6.4868   -1.2914    0.0000 C   0  0  0  0  0  0  0  0  0  0  0  0
    5.0616   -1.7591    0.0000 O   0  0  0  0  0  0  0  0  0  0  0  0
    3.9440   -0.7586    0.0000 C   0  0  0  0  0  0  0  0  0  0  0  0
    2.5187   -1.2262    0.0000 C   0  0  0  0  0  0  0  0  0  0  0  0
    1.4011   -0.2257    0.0000 C   0  0  0  0  0  0  0  0  0  0  0  0
   -0.0241   -0.6934    0.0000 C   0  0  0  0  0  0  0  0  0  0  0  0
   -1.1417    0.3071    0.0000 C   0  0  0  0  0  0  0  0  0  0  0  0
   -0.8341    1.7752    0.0000 C   0  0  0  0  0  0  0  0  0  0  0  0
   -1.9517    2.7757    0.0000 C   0  0  0  0  0  0  0  0  0  0  0  0
   -3.3769    2.3081    0.0000 C   0  0  0  0  0  0  0  0  0  0  0  0
   -3.6846    0.8400    0.0000 C   0  0  0  0  0  0  0  0  0  0  0  0
   -2.5670   -0.1605    0.0000 C   0  0  0  0  0  0  0  0  0  0  0  0
   -2.8746   -1.6286    0.0000 C   0  0  0  0  0  0  0  0  0  0  0  0
   -4.2999   -2.0963    0.0000 O   0  0  0  0  0  0  0  0  0  0  0  0
   -5.4175   -1.0958    0.0000 C   0  0  0  0  0  0  0  0  0  0  0  0
   -6.8427   -1.5634    0.0000 C   0  0  0  0  0  0  0  0  0  0  0  0
   -5.1098    0.3723    0.0000 O   0  0  0  0  0  0  0  0  0  0  0  0
   -1.7570   -2.6291    0.0000 C   0  0  0  0  0  0  0  0  0  0  0  0
   -1.7527   -4.1291    0.0000 C   0  0  0  0  0  0  0  0  0  0  0  0
   -0.3248   -4.5885    0.0000 O   0  0  0  0  0  0  0  0  0  0  0  0
    0.5534   -3.3725    0.0000 C   0  0  0  0  0  0  0  0  0  0  0  0
    2.0534   -3.3681    0.0000 O   0  0  0  0  0  0  0  0  0  0  0  0
   -0.3318   -2.1615    0.0000 C   0  0  0  0  0  0  0  0  0  0  0  0
   -4.2621    3.5191    0.0000 O   0  0  0  0  0  0  0  0  0  0  0  0
   -3.3839    4.7351    0.0000 C   0  0  0  0  0  0  0  0  0  0  0  0
   -1.9560    4.2757    0.0000 O   0  0  0  0  0  0  0  0  0  0  0  0
    1.7087    1.2424    0.0000 C   0  0  0  0  0  0  0  0  0  0  0  0
    3.1340    1.7100    0.0000 C   0  0  0  0  0  0  0  0  0  0  0  0
    3.4416    3.1781    0.0000 O   0  0  0  0  0  0  0  0  0  0  0  0
    4.8669    3.6458    0.0000 C   0  0  0  0  0  0  0  0  0  0  0  0
    4.2516    0.7095    0.0000 C   0  0  0  0  0  0  0  0  0  0  0  0
    5.6768    1.1772    0.0000 O   0  0  0  0  0  0  0  0  0  0  0  0
    6.7944    0.1767    0.0000 C   0  0  0  0  0  0  0  0  0  0  0  0
  1  2  1  0
  2  3  1  0
  3  4  2  0
  4  5  1  0
  6  5  1  1
  6  7  1  0
  7  8  2  0
  8  9  1  0
  9 10  2  0
 10 11  1  0
 11 12  2  0
 12 13  1  0
 13 14  1  1
 14 15  1  0
 15 16  1  0
 15 17  2  0
 13 18  1  0
 18 19  1  6
 19 20  1  0
 20 21  1  0
 21 22  2  0
 23 21  1  1
 10 24  1  0
 24 25  1  0
 25 26  1  0
  5 27  2  0
 27 28  1  0
 28 29  1  0
 29 30  1  0
 28 31  2  0
 31 32  1  0
 32 33  1  0
 31  3  1  0
 23  6  1  0
 12  7  1  0
 23 18  1  0
 26  9  1  0
M  END
>  <identifier>  (461) 
CNP0183647.1

>  <canonical_smiles>  (461) 
COC1=CC([C@@H]2C3=CC4=C(C=C3[C@H](OC(C)=O)[C@H]3COC(=O)[C@H]23)OCO4)=CC(OC)=C1OC

>  <standard_inchi>  (461) 
InChI=1S/C24H24O9/c1-11(25)33-22-14-8-17-16(31-10-32-17)7-13(14)20(21-15(22)9-30-24(21)26)12-5-18(27-2)23(29-4)19(6-12)28-3/h5-8,15,20-22H,9-10H2,1-4H3/t15-,20+,21-,22-/m0/s1

>  <standard_inchi_key>  (461) 
SASVNKPCTLROPQ-NZYDNVMFSA-N

>  <name>  (461) 
Podophyllotoxin acetate

>  <iupac_name>  (461) 
[(5~{R},5~{a}~{R},8~{a}~{R},9~{R})-8-oxo-9-(3,4,5-trimethoxyphenyl)-5~{a},6,8~{a},9-tetrahydro-5~{H}-isobenzofuro[5,6-f][1,3]benzodioxol-5-yl] acetate

>  <annotation_level>  (461) 
5

>  <total_atom_count>  (461) 
57

>  <heavy_atom_count>  (461) 
33

>  <molecular_weight>  (461) 
456.45

>  <exact_molecular_weight>  (461) 
456.14203

>  <molecular_formula>  (461) 
C24H24O9

>  <alogp>  (461) 
2.98

>  <topological_polar_surface_area>  (461) 
98.75

>  <rotatable_bond_count>  (461) 
5

>  <hydrogen_bond_acceptors>  (461) 
9

>  <hydrogen_bond_donors>  (461) 
0

>  <hydrogen_bond_acceptors_lipinski>  (461) 
9

>  <hydrogen_bond_donors_lipinski>  (461) 
0

>  <lipinski_rule_of_five_violations>  (461) 
0

>  <aromatic_rings_count>  (461) 
2

>  <qed_drug_likeliness>  (461) 
0.63

>  <formal_charge>  (461) 
0

>  <fractioncsp3>  (461) 
0.42

>  <number_of_minimal_rings>  (461) 
5

>  <van_der_walls_volume>  (461) 
389.14

>  <contains_sugar>  (461) 
False

>  <contains_ring_sugars>  (461) 
False

>  <contains_linear_sugars>  (461) 
False

>  <murcko_framework>  (461) 
O1c2cc3c(cc2OC1)C(c4ccccc4)C5COCC5C3

>  <np_likeness>  (461) 
1.56

>  <chemical_class>  (461) 
Lignan lactones

>  <chemical_sub_class>  (461) 
Podophyllotoxins

>  <chemical_super_class>  (461) 
Lignans, neolignans and related compounds

>  <direct_parent_classification>  (461) 
Podophyllotoxins

>  <np_classifier_pathway>  (461) 
Shikimates and Phenylpropanoids

>  <np_classifier_superclass>  (461) 
Lignans

>  <np_classifier_class>  (461) 
Arylnaphthalene and aryltetralin lignans

>  <np_classifier_is_glycoside>  (461) 
False

>  <organisms>  (461) 
Bursera fagaroides

>  <collections>  (461) 
BIOFACQUIM|CMAUP (cCollective molecular activities of useful plants)|Latin America dataset|NPASS|NPEdia|Super Natural II

>  <dois>  (461) 
10.1021/acs.jnatprod.6b00428

>  <synonyms>  (461) 
Acetylpodophyllotoxin|Podophyllin Acetate|Podophyllotoxin| acetate|1180-34-3|2KJY6T7ZX5|NSC-36408|NSC 36408|Spectrum_001858|Spectrum2_001681|Spectrum3_001672|Spectrum4_001662|Spectrum5_000563|UNII-2KJY6T7ZX5|BSPBio_003483|KBioGR_002183|KBioSS_002375|(5R|5aR|8aR|9R)-8-oxo-9-(3|4|5-trimethoxyphenyl)-5a|6|8a|9-tetrahydro-5H-2benzofuro5|6-f1|3benzodioxol-5-yl acetate|SCHEMBL985502|SPECTRUM1504412|SPBio_001602|CHEMBL1409147|KBio2_002371|KBio2_004939|KBio2_007507|KBio3_002703|DTXSID90151999|CCG-38772|SDCCGMLS-0066778.P001|NCGC00161925-01|BRD-K62577500-001-03-6|Furo(3'|4':6|7)naphtho(2|3-d)-1|3-dioxol-6(5aH)-one| 9-(acetyloxy)-5|8|8a|9-tetrahydro-5-(3|4|5-trimethoxyphenyl)-| (5R-(5alpha|5abeta|8aalpha|9alpha))-|Furo3'|4':6|7naphtho2|3-d-1|3-dioxol-6(5aH)-one| 9-(acetyloxy)-5|8|8a|9-tetrahydro-5-(3|4|5-trimethoxyphenyl)-| (5R|5aR|8aR|9R)-

>  <cas>  (461) 
1180-34-3

$$$$

     RDKit          2D

 28 33  0  0  0  0  0  0  0  0999 V2000
   -6.1787   -0.6790    0.0000 C   0  0  0  0  0  0  0  0  0  0  0  0
   -4.7955   -1.2593    0.0000 O   0  0  0  0  0  0  0  0  0  0  0  0
   -3.6013   -0.3516    0.0000 C   0  0  0  0  0  0  0  0  0  0  0  0
   -2.2181   -0.9319    0.0000 C   0  0  0  0  0  0  0  0  0  0  0  0
   -2.0291   -2.4199    0.0000 C   0  0  0  0  0  0  0  0  0  0  0  0
   -0.6459   -3.0002    0.0000 C   0  0  0  0  0  0  0  0  0  0  0  0
   -0.1516   -4.4165    0.0000 C   0  0  0  0  0  0  0  0  0  0  0  0
    1.3480   -4.3840    0.0000 O   0  0  0  0  0  0  0  0  0  0  0  0
    1.7806   -2.9477    0.0000 C   0  0  0  0  0  0  0  0  0  0  0  0
    3.1968   -2.4535    0.0000 O   0  0  0  0  0  0  0  0  0  0  0  0
    0.5482   -2.0925    0.0000 C   0  0  0  0  0  0  0  0  0  0  0  0
    0.3592   -0.6045    0.0000 C   0  0  0  0  0  0  0  0  0  0  0  0
    1.5534    0.3032    0.0000 C   0  0  0  0  0  0  0  0  0  0  0  0
    1.3644    1.7913    0.0000 C   0  0  0  0  0  0  0  0  0  0  0  0
    2.5585    2.6990    0.0000 C   0  0  0  0  0  0  0  0  0  0  0  0
    3.9417    2.1187    0.0000 C   0  0  0  0  0  0  0  0  0  0  0  0
    5.2985    2.7583    0.0000 O   0  0  0  0  0  0  0  0  0  0  0  0
    6.3261    1.6655    0.0000 C   0  0  0  0  0  0  0  0  0  0  0  0
    5.6044    0.3506    0.0000 O   0  0  0  0  0  0  0  0  0  0  0  0
    4.1308    0.6306    0.0000 C   0  0  0  0  0  0  0  0  0  0  0  0
    2.9366   -0.2771    0.0000 C   0  0  0  0  0  0  0  0  0  0  0  0
   -1.0240   -0.0242    0.0000 C   0  0  0  0  0  0  0  0  0  0  0  0
   -1.2130    1.4639    0.0000 C   0  0  0  0  0  0  0  0  0  0  0  0
   -2.5962    2.0442    0.0000 C   0  0  0  0  0  0  0  0  0  0  0  0
   -3.7904    1.1365    0.0000 C   0  0  0  0  0  0  0  0  0  0  0  0
   -5.0227    1.9917    0.0000 O   0  0  0  0  0  0  0  0  0  0  0  0
   -4.5901    3.4280    0.0000 C   0  0  0  0  0  0  0  0  0  0  0  0
   -3.0905    3.4604    0.0000 O   0  0  0  0  0  0  0  0  0  0  0  0
  1  2  1  0
  2  3  1  0
  3  4  2  0
  4  5  1  0
  5  6  1  0
  6  7  1  0
  7  8  1  0
  8  9  1  0
  9 10  2  0
  9 11  1  0
 11 12  1  0
 12 13  1  1
 13 14  2  0
 14 15  1  0
 15 16  2  0
 16 17  1  0
 17 18  1  0
 18 19  1  0
 19 20  1  0
 20 21  2  0
 12 22  1  0
 22 23  2  0
 23 24  1  0
 24 25  2  0
 25 26  1  0
 26 27  1  0
 27 28  1  0
 25  3  1  0
 22  4  1  0
 28 24  1  0
 11  6  1  0
 21 13  1  0
 20 16  1  0
M  END
>  <identifier>  (462) 
CNP0356238.1

>  <canonical_smiles>  (462) 
COC1=C2CC3COC(=O)C3[C@H](C3=CC=C4OCOC4=C3)C2=CC2=C1OCO2

>  <standard_inchi>  (462) 
InChI=1S/C21H18O7/c1-23-19-13-4-11-7-24-21(22)18(11)17(12(13)6-16-20(19)28-9-27-16)10-2-3-14-15(5-10)26-8-25-14/h2-3,5-6,11,17-18H,4,7-9H2,1H3/t11?,17-,18?/m1/s1

>  <standard_inchi_key>  (462) 
CCJWJASNEQOVDI-CXKHSYRPSA-N

>  <name>  (462) 
nan

>  <iupac_name>  (462) 
(9~{R})-9-(1,3-benzodioxol-5-yl)-4-methoxy-5~{a},6,8~{a},9-tetrahydro-5~{H}-isobenzofuro[5,6-f][1,3]benzodioxol-8-one

>  <annotation_level>  (462) 
5

>  <total_atom_count>  (462) 
46

>  <heavy_atom_count>  (462) 
28

>  <molecular_weight>  (462) 
382.37

>  <exact_molecular_weight>  (462) 
382.10525

>  <molecular_formula>  (462) 
C21H18O7

>  <alogp>  (462) 
2.63

>  <topological_polar_surface_area>  (462) 
72.45

>  <rotatable_bond_count>  (462) 
2

>  <hydrogen_bond_acceptors>  (462) 
7

>  <hydrogen_bond_donors>  (462) 
0

>  <hydrogen_bond_acceptors_lipinski>  (462) 
7

>  <hydrogen_bond_donors_lipinski>  (462) 
0

>  <lipinski_rule_of_five_violations>  (462) 
0

>  <aromatic_rings_count>  (462) 
2

>  <qed_drug_likeliness>  (462) 
0.74

>  <formal_charge>  (462) 
0

>  <fractioncsp3>  (462) 
0.38

>  <number_of_minimal_rings>  (462) 
6

>  <van_der_walls_volume>  (462) 
317.19

>  <contains_sugar>  (462) 
False

>  <contains_ring_sugars>  (462) 
False

>  <contains_linear_sugars>  (462) 
False

>  <murcko_framework>  (462) 
O1c2ccc(cc2OC1)C3c4cc5OCOc5cc4CC6COCC36

>  <np_likeness>  (462) 
1.60

>  <chemical_class>  (462) 
Lignan lactones

>  <chemical_sub_class>  (462) 
Lignan lactones

>  <chemical_super_class>  (462) 
Lignans, neolignans and related compounds

>  <direct_parent_classification>  (462) 
Lignan lactones

>  <np_classifier_pathway>  (462) 
Shikimates and Phenylpropanoids

>  <np_classifier_superclass>  (462) 
Lignans

>  <np_classifier_class>  (462) 
Arylnaphthalene and aryltetralin lignans

>  <np_classifier_is_glycoside>  (462) 
False

>  <organisms>  (462) 
Bursera fagaroides

>  <collections>  (462) 
BIOFACQUIM|Latin America dataset

>  <dois>  (462) 
10.1021/acs.jnatprod.6b00428

>  <synonyms>  (462) 
Burseranin

>  <cas>  (462) 
nan

$$$$

     RDKit          2D

 24 25  0  0  0  0  0  0  0  0999 V2000
    2.2834   -3.4580    0.0000 C   0  0  0  0  0  0  0  0  0  0  0  0
    2.3748   -1.9608    0.0000 C   0  0  0  0  0  0  0  0  0  0  0  0
    1.1238   -1.1331    0.0000 C   0  0  0  0  0  0  0  0  0  0  0  0
    1.2152    0.3641    0.0000 C   0  0  0  0  0  0  0  0  0  0  0  0
   -0.0357    1.1919    0.0000 O   0  0  0  0  0  0  0  0  0  0  0  0
   -1.3780    0.5224    0.0000 C   0  0  0  0  0  0  0  0  0  0  0  0
   -2.6289    1.3502    0.0000 O   0  0  0  0  0  0  0  0  0  0  0  0
   -3.9713    0.6807    0.0000 C   0  0  0  0  0  0  0  0  0  0  0  0
   -5.2222    1.5085    0.0000 C   0  0  0  0  0  0  0  0  0  0  0  0
   -5.1308    3.0057    0.0000 O   0  0  0  0  0  0  0  0  0  0  0  0
   -4.0627   -0.8165    0.0000 C   0  0  0  0  0  0  0  0  0  0  0  0
   -5.4050   -1.4859    0.0000 O   0  0  0  0  0  0  0  0  0  0  0  0
   -2.8117   -1.6442    0.0000 C   0  0  0  0  0  0  0  0  0  0  0  0
   -2.9031   -3.1415    0.0000 O   0  0  0  0  0  0  0  0  0  0  0  0
   -1.4694   -0.9748    0.0000 C   0  0  0  0  0  0  0  0  0  0  0  0
   -0.2185   -1.8025    0.0000 O   0  0  0  0  0  0  0  0  0  0  0  0
    2.5576    1.0336    0.0000 C   0  0  0  0  0  0  0  0  0  0  0  0
    2.6489    2.5308    0.0000 C   0  0  0  0  0  0  0  0  0  0  0  0
    3.9913    3.2003    0.0000 C   0  0  0  0  0  0  0  0  0  0  0  0
    1.3980    3.3586    0.0000 C   0  0  0  0  0  0  0  0  0  0  0  0
    3.8085    0.2058    0.0000 C   0  0  0  0  0  0  0  0  0  0  0  0
    5.1508    0.8753    0.0000 O   0  0  0  0  0  0  0  0  0  0  0  0
    3.7171   -1.2914    0.0000 C   0  0  0  0  0  0  0  0  0  0  0  0
    4.9680   -2.1191    0.0000 O   0  0  0  0  0  0  0  0  0  0  0  0
  1  2  1  0
  2  3  2  0
  3  4  1  0
  4  5  1  1
  6  5  1  1
  6  7  1  0
  7  8  1  0
  8  9  1  1
  9 10  1  0
  8 11  1  0
 11 12  1  6
 11 13  1  0
 13 14  1  1
 13 15  1  0
 15 16  1  6
  4 17  1  0
 17 18  1  6
 18 19  1  0
 18 20  1  0
 17 21  1  0
 21 22  1  1
 21 23  1  0
 23 24  1  1
 23  2  1  0
 15  6  1  0
M  END
>  <identifier>  (463) 
CNP0436824.1

>  <canonical_smiles>  (463) 
CC1=C[C@@H](O[C@@H]2O[C@H](CO)[C@@H](O)[C@H](O)[C@H]2O)[C@H](C(C)C)[C@@H](O)[C@H]1O

>  <standard_inchi>  (463) 
InChI=1S/C16H28O8/c1-6(2)10-8(4-7(3)11(18)13(10)20)23-16-15(22)14(21)12(19)9(5-17)24-16/h4,6,8-22H,5H2,1-3H3/t8-,9-,10+,11+,12-,13-,14+,15-,16-/m1/s1

>  <standard_inchi_key>  (463) 
DEFIEKASXUVNEO-GSCFCXLMSA-N

>  <name>  (463) 
nan

>  <iupac_name>  (463) 
(2~{R},3~{R},4~{S},5~{S},6~{R})-2-[(1~{R},4~{S},5~{R},6~{R})-4,5-dihydroxy-6-isopropyl-3-methyl-cyclohex-2-en-1-yl]oxy-6-(hydroxymethyl)tetrahydropyran-3,4,5-triol

>  <annotation_level>  (463) 
5

>  <total_atom_count>  (463) 
52

>  <heavy_atom_count>  (463) 
24

>  <molecular_weight>  (463) 
348.39

>  <exact_molecular_weight>  (463) 
348.17842

>  <molecular_formula>  (463) 
C16H28O8

>  <alogp>  (463) 
-1.87

>  <topological_polar_surface_area>  (463) 
139.84

>  <rotatable_bond_count>  (463) 
4

>  <hydrogen_bond_acceptors>  (463) 
8

>  <hydrogen_bond_donors>  (463) 
6

>  <hydrogen_bond_acceptors_lipinski>  (463) 
8

>  <hydrogen_bond_donors_lipinski>  (463) 
6

>  <lipinski_rule_of_five_violations>  (463) 
1

>  <aromatic_rings_count>  (463) 
0

>  <qed_drug_likeliness>  (463) 
0.32

>  <formal_charge>  (463) 
0

>  <fractioncsp3>  (463) 
0.88

>  <number_of_minimal_rings>  (463) 
2

>  <van_der_walls_volume>  (463) 
316.78

>  <contains_sugar>  (463) 
True

>  <contains_ring_sugars>  (463) 
True

>  <contains_linear_sugars>  (463) 
False

>  <murcko_framework>  (463) 
O1CCCCC1OC2C=CCCC2

>  <np_likeness>  (463) 
2.46

>  <chemical_class>  (463) 
Prenol lipids

>  <chemical_sub_class>  (463) 
Terpene glycosides

>  <chemical_super_class>  (463) 
Lipids and lipid-like molecules

>  <direct_parent_classification>  (463) 
Terpene glycosides

>  <np_classifier_pathway>  (463) 
Terpenoids

>  <np_classifier_superclass>  (463) 
nan

>  <np_classifier_class>  (463) 
nan

>  <np_classifier_is_glycoside>  (463) 
True

>  <organisms>  (463) 
Ageratina glabrata

>  <collections>  (463) 
BIOFACQUIM|Latin America dataset

>  <dois>  (463) 
10.1021/acs.jnatprod.6b00491

>  <synonyms>  (463) 
(\u201a\u00e0\u00ed)-(3S 4R 5R 6S)-3 5 6-trihydroxy-1-menthene 3-O-\u0152\u2264-d-glucopyranoside

>  <cas>  (463) 
nan

$$$$

     RDKit          2D

 13 13  0  0  0  0  0  0  0  0999 V2000
   -3.4398    1.5083    0.0000 C   0  0  0  0  0  0  0  0  0  0  0  0
   -2.6182    0.2534    0.0000 C   0  0  0  0  0  0  0  0  0  0  0  0
   -3.2942   -1.0857    0.0000 C   0  0  0  0  0  0  0  0  0  0  0  0
   -1.1205    0.3374    0.0000 C   0  0  0  0  0  0  0  0  0  0  0  0
   -0.4445    1.6765    0.0000 C   0  0  0  0  0  0  0  0  0  0  0  0
    1.0531    1.7605    0.0000 C   0  0  0  0  0  0  0  0  0  0  0  0
    1.8748    0.5056    0.0000 C   0  0  0  0  0  0  0  0  0  0  0  0
    2.9680    1.5326    0.0000 C   0  0  0  0  0  0  0  0  0  0  0  0
    3.0761   -0.3927    0.0000 O   0  0  0  0  0  0  0  0  0  0  0  0
    1.1987   -0.8335    0.0000 C   0  0  0  0  0  0  0  0  0  0  0  0
    2.0204   -2.0884    0.0000 O   0  0  0  0  0  0  0  0  0  0  0  0
   -0.2989   -0.9175    0.0000 C   0  0  0  0  0  0  0  0  0  0  0  0
   -0.9749   -2.2566    0.0000 O   0  0  0  0  0  0  0  0  0  0  0  0
  1  2  1  0
  2  3  1  0
  4  2  1  1
  4  5  1  0
  5  6  2  0
  6  7  1  0
  7  8  1  6
  7  9  1  0
  7 10  1  0
 10 11  1  6
 10 12  1  0
 12 13  1  6
 12  4  1  0
M  END
>  <identifier>  (464) 
CNP0436850.1

>  <canonical_smiles>  (464) 
CC(C)[C@H]1C=C[C@@](C)(O)[C@H](O)[C@@H]1O

>  <standard_inchi>  (464) 
InChI=1S/C10H18O3/c1-6(2)7-4-5-10(3,13)9(12)8(7)11/h4-9,11-13H,1-3H3/t7-,8-,9-,10-/m1/s1

>  <standard_inchi_key>  (464) 
XGHAQANKWRPDSO-ZYUZMQFOSA-N

>  <name>  (464) 
nan

>  <iupac_name>  (464) 
(1~{R},2~{R},3~{R},6~{S})-6-isopropyl-3-methyl-cyclohex-4-ene-1,2,3-triol

>  <annotation_level>  (464) 
5

>  <total_atom_count>  (464) 
31

>  <heavy_atom_count>  (464) 
13

>  <molecular_weight>  (464) 
186.25

>  <exact_molecular_weight>  (464) 
186.12559

>  <molecular_formula>  (464) 
C10H18O3

>  <alogp>  (464) 
0.30

>  <topological_polar_surface_area>  (464) 
60.69

>  <rotatable_bond_count>  (464) 
1

>  <hydrogen_bond_acceptors>  (464) 
3

>  <hydrogen_bond_donors>  (464) 
3

>  <hydrogen_bond_acceptors_lipinski>  (464) 
3

>  <hydrogen_bond_donors_lipinski>  (464) 
3

>  <lipinski_rule_of_five_violations>  (464) 
0

>  <aromatic_rings_count>  (464) 
0

>  <qed_drug_likeliness>  (464) 
0.52

>  <formal_charge>  (464) 
0

>  <fractioncsp3>  (464) 
0.80

>  <number_of_minimal_rings>  (464) 
1

>  <van_der_walls_volume>  (464) 
184.26

>  <contains_sugar>  (464) 
False

>  <contains_ring_sugars>  (464) 
False

>  <contains_linear_sugars>  (464) 
False

>  <murcko_framework>  (464) 
C1=CCCCC1

>  <np_likeness>  (464) 
1.93

>  <chemical_class>  (464) 
Prenol lipids

>  <chemical_sub_class>  (464) 
Monoterpenoids

>  <chemical_super_class>  (464) 
Lipids and lipid-like molecules

>  <direct_parent_classification>  (464) 
Monocyclic monoterpenoids

>  <np_classifier_pathway>  (464) 
Terpenoids

>  <np_classifier_superclass>  (464) 
nan

>  <np_classifier_class>  (464) 
nan

>  <np_classifier_is_glycoside>  (464) 
False

>  <organisms>  (464) 
Ageratina glabrata

>  <collections>  (464) 
BIOFACQUIM|Latin America dataset

>  <dois>  (464) 
10.1021/acs.jnatprod.6b00491

>  <synonyms>  (464) 
(+)-(1R 4S 5R 6R)-1 5 6-trihydroxy-2-menthene

>  <cas>  (464) 
nan

$$$$

     RDKit          2D

 13 13  0  0  0  0  0  0  0  0999 V2000
   -3.4398    1.5083    0.0000 C   0  0  0  0  0  0  0  0  0  0  0  0
   -2.6182    0.2534    0.0000 C   0  0  0  0  0  0  0  0  0  0  0  0
   -3.2942   -1.0857    0.0000 C   0  0  0  0  0  0  0  0  0  0  0  0
   -1.1205    0.3374    0.0000 C   0  0  0  0  0  0  0  0  0  0  0  0
   -0.4445    1.6765    0.0000 C   0  0  0  0  0  0  0  0  0  0  0  0
    1.0531    1.7605    0.0000 C   0  0  0  0  0  0  0  0  0  0  0  0
    1.8748    0.5056    0.0000 C   0  0  0  0  0  0  0  0  0  0  0  0
    2.9680    1.5326    0.0000 C   0  0  0  0  0  0  0  0  0  0  0  0
    3.0761   -0.3927    0.0000 O   0  0  0  0  0  0  0  0  0  0  0  0
    1.1987   -0.8335    0.0000 C   0  0  0  0  0  0  0  0  0  0  0  0
    2.0204   -2.0884    0.0000 O   0  0  0  0  0  0  0  0  0  0  0  0
   -0.2989   -0.9175    0.0000 C   0  0  0  0  0  0  0  0  0  0  0  0
   -0.9749   -2.2566    0.0000 O   0  0  0  0  0  0  0  0  0  0  0  0
  1  2  1  0
  2  3  1  0
  4  2  1  1
  4  5  1  0
  5  6  2  0
  6  7  1  0
  7  8  1  1
  7  9  1  0
  7 10  1  0
 10 11  1  6
 10 12  1  0
 12 13  1  6
 12  4  1  0
M  END
>  <identifier>  (465) 
CNP0436850.2

>  <canonical_smiles>  (465) 
CC(C)[C@H]1C=C[C@](C)(O)[C@H](O)[C@@H]1O

>  <standard_inchi>  (465) 
InChI=1S/C10H18O3/c1-6(2)7-4-5-10(3,13)9(12)8(7)11/h4-9,11-13H,1-3H3/t7-,8-,9-,10+/m1/s1

>  <standard_inchi_key>  (465) 
XGHAQANKWRPDSO-KYXWUPHJSA-N

>  <name>  (465) 
nan

>  <iupac_name>  (465) 
(1~{R},2~{R},3~{S},6~{S})-6-isopropyl-3-methyl-cyclohex-4-ene-1,2,3-triol

>  <annotation_level>  (465) 
5

>  <total_atom_count>  (465) 
31

>  <heavy_atom_count>  (465) 
13

>  <molecular_weight>  (465) 
186.25

>  <exact_molecular_weight>  (465) 
186.12559

>  <molecular_formula>  (465) 
C10H18O3

>  <alogp>  (465) 
0.30

>  <topological_polar_surface_area>  (465) 
60.69

>  <rotatable_bond_count>  (465) 
1

>  <hydrogen_bond_acceptors>  (465) 
3

>  <hydrogen_bond_donors>  (465) 
3

>  <hydrogen_bond_acceptors_lipinski>  (465) 
3

>  <hydrogen_bond_donors_lipinski>  (465) 
3

>  <lipinski_rule_of_five_violations>  (465) 
0

>  <aromatic_rings_count>  (465) 
0

>  <qed_drug_likeliness>  (465) 
0.52

>  <formal_charge>  (465) 
0

>  <fractioncsp3>  (465) 
0.80

>  <number_of_minimal_rings>  (465) 
1

>  <van_der_walls_volume>  (465) 
184.77

>  <contains_sugar>  (465) 
False

>  <contains_ring_sugars>  (465) 
False

>  <contains_linear_sugars>  (465) 
False

>  <murcko_framework>  (465) 
C1=CCCCC1

>  <np_likeness>  (465) 
1.93

>  <chemical_class>  (465) 
Prenol lipids

>  <chemical_sub_class>  (465) 
Monoterpenoids

>  <chemical_super_class>  (465) 
Lipids and lipid-like molecules

>  <direct_parent_classification>  (465) 
Monocyclic monoterpenoids

>  <np_classifier_pathway>  (465) 
Terpenoids

>  <np_classifier_superclass>  (465) 
nan

>  <np_classifier_class>  (465) 
nan

>  <np_classifier_is_glycoside>  (465) 
False

>  <organisms>  (465) 
Ageratina glabrata

>  <collections>  (465) 
BIOFACQUIM|Latin America dataset

>  <dois>  (465) 
10.1021/acs.jnatprod.6b00491

>  <synonyms>  (465) 
(+)-(1S 4S 5R 6R)-1 5 6-trihydroxy-2-menthene

>  <cas>  (465) 
nan

$$$$

     RDKit          2D

 22 24  0  0  0  0  0  0  0  0999 V2000
   -4.0698    3.3325    0.0000 C   0  0  0  0  0  0  0  0  0  0  0  0
   -4.8281    2.0383    0.0000 O   0  0  0  0  0  0  0  0  0  0  0  0
   -4.0863    0.7345    0.0000 C   0  0  0  0  0  0  0  0  0  0  0  0
   -2.5864    0.7250    0.0000 C   0  0  0  0  0  0  0  0  0  0  0  0
   -1.8446   -0.5788    0.0000 C   0  0  0  0  0  0  0  0  0  0  0  0
   -0.3446   -0.5883    0.0000 C   0  0  0  0  0  0  0  0  0  0  0  0
    0.3971   -1.8921    0.0000 C   0  0  0  0  0  0  0  0  0  0  0  0
    1.8971   -1.9016    0.0000 C   0  0  0  0  0  0  0  0  0  0  0  0
    2.6388   -3.2054    0.0000 O   0  0  0  0  0  0  0  0  0  0  0  0
    2.6553   -0.6073    0.0000 C   0  0  0  0  0  0  0  0  0  0  0  0
    4.1553   -0.6168    0.0000 C   0  0  0  0  0  0  0  0  0  0  0  0
    4.8970   -1.9206    0.0000 O   0  0  0  0  0  0  0  0  0  0  0  0
    4.9135    0.6774    0.0000 C   0  0  0  0  0  0  0  0  0  0  0  0
    4.1717    1.9812    0.0000 C   0  0  0  0  0  0  0  0  0  0  0  0
    4.9300    3.2754    0.0000 O   0  0  0  0  0  0  0  0  0  0  0  0
    2.6718    1.9907    0.0000 C   0  0  0  0  0  0  0  0  0  0  0  0
    1.9135    0.6964    0.0000 C   0  0  0  0  0  0  0  0  0  0  0  0
    0.4136    0.7060    0.0000 O   0  0  0  0  0  0  0  0  0  0  0  0
   -2.6028   -1.8730    0.0000 C   0  0  0  0  0  0  0  0  0  0  0  0
   -4.1028   -1.8635    0.0000 C   0  0  0  0  0  0  0  0  0  0  0  0
   -4.8446   -0.5597    0.0000 C   0  0  0  0  0  0  0  0  0  0  0  0
   -6.3445   -0.5502    0.0000 O   0  0  0  0  0  0  0  0  0  0  0  0
  1  2  1  0
  2  3  1  0
  3  4  2  0
  4  5  1  0
  5  6  1  0
  6  7  2  0
  7  8  1  0
  8  9  2  0
  8 10  1  0
 10 11  2  0
 11 12  1  0
 11 13  1  0
 13 14  2  0
 14 15  1  0
 14 16  1  0
 16 17  2  0
 17 18  1  0
  5 19  2  0
 19 20  1  0
 20 21  2  0
 21 22  1  0
 21  3  1  0
 18  6  1  0
 17 10  1  0
M  END
>  <identifier>  (466) 
CNP0223782.0

>  <canonical_smiles>  (466) 
COC1=CC(C2=CC(=O)C3=C(O)C=C(O)C=C3O2)=CC=C1O

>  <standard_inchi>  (466) 
InChI=1S/C16H12O6/c1-21-14-4-8(2-3-10(14)18)13-7-12(20)16-11(19)5-9(17)6-15(16)22-13/h2-7,17-19H,1H3

>  <standard_inchi_key>  (466) 
SCZVLDHREVKTSH-UHFFFAOYSA-N

>  <name>  (466) 
Chrysoeriol

>  <iupac_name>  (466) 
5,7-dihydroxy-2-(4-hydroxy-3-methoxy-phenyl)chromen-4-one

>  <annotation_level>  (466) 
5

>  <total_atom_count>  (466) 
34

>  <heavy_atom_count>  (466) 
22

>  <molecular_weight>  (466) 
300.27

>  <exact_molecular_weight>  (466) 
300.06339

>  <molecular_formula>  (466) 
C16H12O6

>  <alogp>  (466) 
2.59

>  <topological_polar_surface_area>  (466) 
100.13

>  <rotatable_bond_count>  (466) 
2

>  <hydrogen_bond_acceptors>  (466) 
6

>  <hydrogen_bond_donors>  (466) 
3

>  <hydrogen_bond_acceptors_lipinski>  (466) 
6

>  <hydrogen_bond_donors_lipinski>  (466) 
3

>  <lipinski_rule_of_five_violations>  (466) 
0

>  <aromatic_rings_count>  (466) 
3

>  <qed_drug_likeliness>  (466) 
0.67

>  <formal_charge>  (466) 
0

>  <fractioncsp3>  (466) 
0.06

>  <number_of_minimal_rings>  (466) 
3

>  <van_der_walls_volume>  (466) 
246.86

>  <contains_sugar>  (466) 
False

>  <contains_ring_sugars>  (466) 
False

>  <contains_linear_sugars>  (466) 
False

>  <murcko_framework>  (466) 
O1c2ccccc2CC=C1c3ccccc3

>  <np_likeness>  (466) 
1.37

>  <chemical_class>  (466) 
Flavonoids

>  <chemical_sub_class>  (466) 
O-methylated flavonoids

>  <chemical_super_class>  (466) 
Phenylpropanoids and polyketides

>  <direct_parent_classification>  (466) 
3'-O-methylated flavonoids

>  <np_classifier_pathway>  (466) 
Shikimates and Phenylpropanoids

>  <np_classifier_superclass>  (466) 
Flavonoids

>  <np_classifier_class>  (466) 
Flavones

>  <np_classifier_is_glycoside>  (466) 
False

>  <organisms>  (466) 
Acacia aulacocarpa|Acacia pulchella|Acer pycnanthum|Achillea chamaemelifolia|Achillea pseudopectinata|Aconitum leucostomum|Aframomum mala|Aglaia australiensis|Albizia Julibrissin|Allagopappus viscosissimus|Alnus maximowiczii|Amberboa ramosa|Amsinckia tessellata|Anarsia lineatella|Anemone flaccida|Anolis lineatopus|Apis mellifera|Apis mellifera ligustica|Apium graveolens|Apollonias barbujana|Aquilegia ecalcarata|Arachis hypogaea|Ardisia neriifolia|Artemisia annua L.|Artemisia anomala|Artemisia apiacea|Artemisia hanseniana|Artemisia rupestris|Arthrobotrys oligospora|Aspalathus linearis|Aspergillus mutabilis|Asphodeline globifera|Aspidosperma subincanum|Astragalus pycnanthus|Astragalus spinosus|Atuna racemosa|Aucuba chinensis|Aurelia aurita|Axinyssa variabilis|Bauhinia glauca|Bauhinia guianensis|Berberis floribunda|Berlinia tomentosa|Bistorta vivipara|Blumea mollis|Bonamia spectabilis|Botrydium granulatum|Brickellia vernicosa|Brucea javanica|Brya ebenus|Bryum weigelii|Cadia purpurea|Campsis grandiflora|Cannabis sativa|Cannabis sativa L.|Carica dodecaphylla|Ceanothus velutinus|Cedronella canariensis|Centaurea huber-morathii|Cephalotaxus fortunei|Chlorociboria aeruginascens|Chlorophytum borivilianum|Choriaster granulatus|Chresta martii|Chrysomela tremula|Citrus rugulosa|Citrus tangerina|Coleus amboinicus|Conocephalum conicum|Coronopus didymus|Corydalis taliensis|Crocus minimus|Cryptocarya aschersoniana|Cryptolestes ferrugineus|Cunonia macrophylla|Curculigo pilosa|Cymodocea nodosa|Cynometra lujae|Cystoclonium purpureum|Daphne feddei|Delphinium brownii|Derris scandens|Desmodium styracifolium|Dinophysis fortii|Dioscorea gracillima|Diplacus longiflorus|Dipterocarpus dyeri|Dipteryx odorata|Dunalia solanacea|Echinop ritro|Echium rubrum|Eichhornia crassipes|Elsholtzia ciliata|Elsholtzia splendens|Entada africana|Entada polystachya|Entada rheedei|Eriocephalus scariosus|Eriodictyon californicum|Eriodictyon glutinosum|Erylus trisphaerus|Eucalyptus andrewsi|Eucryphia|Eupatorium areolare|Eupatorium argentinum|Eupatorium mikanioides|Felimida luteorosea|Fragaria vesca|Fritillaria thunbergii|Fuligo candida|Fumaria indica|Fumaria micrantha|Garcinia lateriflora|Garcinia scortechinii|Gardenia tubifera|Gleditsia caspica|Glycyrrhiza echinata|Glycyrrhiza glabra|Glycyrrhiza inflata|Glycyrrhiza uralensis|Gracilaria textorii|Guatteria boliviana|Gutierrezia wrightii|Haplophyllum ramosissimum|Helichrysum mixtum|Helipterum charsleyae|Hendersonula toruloidea|Herba lagotidis|Herba meconpsis integrifoliae|Holocalyx balansae|Humata pectinata|Hydrangea serrata|Hymenaea palustris Ducke|Hymeneae palustris|Hypericum elodeoides|Hypericum reflexum|Iberis sempervirens|Iboza riparia|Ilyonectria destructans|Ipomoea cairica|Isodon coetsa|Isodon lophanthoides|Iyengaria stellata|Jamesoniella colorata|Juncus inflexus|Juniperus brevifolia|Kali turgidum|Kopsia grandifolia|Lactarius spinosulus|Lagotis brevituba|Lasianthus fordii|Ledebouria socialis|Lentinus tigrinus|Lepidium didymum|Lepidosperma ustulatum|Lepraria membranacea|Leucas aspera|Lobelia chinensis|Lonicera japonica|Lotus maritimus|Lunularia cruciata|Lycopodium contiguum|Lycopus europaeus|Lycopus lucidus|Lysiana subfalcata|Macadamia ternifolia|Macaranga peltata|Macfadyena cynanchoides|Markhamia stipulata|Marrubium velutinum|Meconopsis horridula|Medicago intertexta|Medicago marina|Medicago sativa|Meridiastra calcar|Millettia zechiana|Mitracarpus scaber|Mollugo spergula|Monomeria barbata|Morinda morindoides|Mosla chinensis|Mundulea striata|Myoporum bontioides|Myriapora truncata|Myrsine capitellata|Nectandra rubra|Neolentinus lepideus|Newbouldia laevis|Nicotiana affinis|Nostoc spongiaeforme|Notholaena californica|Ocotea glaziovii|Ononis angustissima|Onopordum acanthium|Oroxylum indicum|Osteospermum fruticosum|Osteospermum muricatum|Pajanelia multijuga|Panax innovans|Panda oleosa|Papaver tatricum|Parablechnum minus|Parkinsonia aculeata|Patersonia umbrosa|Peltogyne pubescens|Penicillium cinerascens|Peperomia vulcanica|Perilla frutescens|Peritassa compta|Persea mexicana|Phaeolus schweinitzii|Philotheca myoporoides|Phomopsis leptostromiformis|Phyllanthus virgatus|Physalis edulis|Piliostigma malabaricum|Pinus aristata|Pinus excelsa|Pinus monticola|Piper cuneifolium|Plantago cornuti|Platycarya strobilacea|Plectranthus nummularius|Plectranthus sylvestris|Pleurotus japonicus|Plumbago zeylanica|Polygala arillata|Polygonatum odoratum|Premna tomentosa|Primula sinensis|Pseudoceratina arabica|Pseudonocardia compacta|Pseuduvaria indochinensis|Psiadia dentata|Psiadia punctulata|Pteris setuloso-costulata|Pterodon emarginatus|Pulsatilla campanella|Rabdosia macrocalyx|Ranunculus peltatus|Rheedia acuminata|Rhizopus stolonifer|Rhodobacter sphaeroides|Riella affinis|Riella americana|Robinsonia gracilis|Roemeria carica|Roldana sessilifolia|Rorippa sylvestris|Rosulabryum capillare|Sagittaria sagittifolia|Salvia candidissima|Salvia dorrii|Salvia lavandulaefolia|Salvia miltiorrhiza|Salvia mirzayana|Salvia palaestina|Saussurea amara|Schumanniophyton magnificum|Scutellaria amoena|Scutellaria baicalensis|Scutellaria discolor|Sedum lineare|Senecio kaempferi|Senecio sandersonii|Sia ferox|Sideritis euboea|Sideritis soluta|Sideritis trojana|Silybum marianum|Sisyrinchium californicum|Solanum aculeatissimum|Sorbus tianschanica|Sordaria araneosa|Stephania elegans|Streptomyces clavifer|Streptomyces griseochromogenes|Swertia decussata|Swertia swertopsis|Symphyocladia latiuscula|Syzygium nervosum|Tanacetum parthenium (L.) Schulz Bip.|Tanacetum vulgare L.|Taxus brevifolia|Tecoma stans|Tephrosia egregia|Tephrosia toxicaria|Thermopsis alterniflora|Thermopsis macrophylla|Thermopsis mollis|Thermopsis rhombifolia|Thermopsis villosa|Thiocystis gelatinosa|Tinospora crispa|Trichoderma koningi|Trichogonia grazielae|Trichosanthes bracteata|Trichosanthes kirilowii|Trichosanthes rosthornii|Triopha carpenteri|Trogoderma granarium|Tsuga chinensis|Tulipa sylvestris|Usnea undulata|Utricularia australis|Uvaria cherrevensis|Varthemia iphionoides|Vatica cinerea|Viguiera stenoloba|Vinca minor|Viola mandshurica|Viola odorata|Viola philippica|Virgilia divaricata|Vitex limonifolia|Vitex polygama|Vouacapoua macropetala|Walsura chrysogyne|Xylopia columbiana|Zea mays|Zea mays L.|Ziziphus jujuba

>  <collections>  (466) 
ANPDB|Australian natural products|BIOFACQUIM|BitterDB|CMAUP (cCollective molecular activities of useful plants)|ChEBI NPs|ConMedNP|FooDB|GNPS (Global Natural Products Social Molecular Networking)|KNApSaCK|Latin America dataset|Marine Natural Products|NANPDB (Natural Products from Northern African Sources)|NPACT|NPASS|NPEdia|NuBBEDB|Phyto4Health|PubChem NPs|Super Natural II|TCMDB-Taiwan (Traditional Chinese Medicine database)|TCMID (Traditional Chinese Medicine Integrated Database)|TIPdb (database of Taiwan indigenous plants)|UNPD (Universal Natural Products Database)|VietHerb|p-ANAPL

>  <dois>  (466) 
10.1007/BF02977770|10.1016/0031-9422(89)80045-7|10.1016/j.bmc.2007.01.035|10.1016/j.bmc.2015.04.053|10.1016/j.bmcl.2014.08.004|10.1016/j.bmcl.2015.05.089|10.1016/j.fitote.2018.05.016|10.1016/j.jep.2016.03.014|10.1016/j.jep.2016.10.074|10.1016/s0031-9422(00)97881-6|10.1016/s0305-1978(99)00045-9|10.1021/acs.jnatprod.6b00581|10.1021/acs.jnatprod.8b00161|10.1021/acs.jnatprod.8b00680|10.1021/np020231e|10.1021/np50081a012|10.1021/np50117a005|10.1021/np900117v|10.1515/znc-2008-5-611

>  <synonyms>  (466) 
491-71-4|Chryseriol|3'-Methoxyapigenin|Luteolin 3'-methyl ether|3'-O-Methylluteolin|4'|5|7-trihydroxy-3'-methoxyflavone|5|7-dihydroxy-2-(4-hydroxy-3-methoxyphenyl)-4H-chromen-4-one|5|7|4'-Trihydroxy-3'-methoxyflavone|4H-1-Benzopyran-4-one| 5|7-dihydroxy-2-(4-hydroxy-3-methoxyphenyl)-|5|7-Dihydroxy-2-(4-hydroxy-3-methoxyphenyl)-4H-1-benzopyran-4-one|EINECS 207-742-6|3'-Methoxy-4'|5|7-trihydroxyflavone|BRN 0295004|CRESOROL|CCRIS 9338|CHEBI:16514|UNII-Q813145M20|CHEMBL214321|Q813145M20|DTXSID60197687|FLAVONE| 4'|5|7-TRIHYDROXY-3'-METHOXY-|MFCD00016780|Scoparol|Chrysoeriol (>90%)|MLS001048958|SCHEMBL293757|cid_5280666|DTXCID20120178|HMS2271C08|AMY36737|BCP28924|AC9701|BDBM50241084|LMPK12110799|NSC732318|AKOS004110683|NCGC00163527-01|MS-24322|SMR000386981|SY252786|2-(5-methoxy|7-dihydroxy-benzpyran-4-one|DB-333932|HY-121471|CS-0082151|NS00031865|3?-METHOXY-4?|5|7-TRIHYDROXYFLAVONE|C04293|A854414|EN300-17991263|SR-01000758948|Q2967432|Chryseriol;3'-Methoxyapigenin;Luteolin 3'-methyl ether|2-(5-methoxy|4-hydroxyphenyl)5|7-dihydroxy-benzpyran-4-one|3 inverted exclamation mark -Methoxy-4 inverted exclamation mark |5|7-trihydroxyflavone|Chrysoeriol 7-triglucuronide|Chrysoeriol 7-(2''-glucuronylglucuronide)|Chrysoeriol 7-disulfoglucoside|chrysoeriol

>  <cas>  (466) 
491-71-4

$$$$

     RDKit          2D

 23 24  0  0  0  0  0  0  0  0999 V2000
    2.6118   -3.3409    0.0000 C   0  0  0  0  0  0  0  0  0  0  0  0
    2.6569   -1.8415    0.0000 C   0  0  0  0  0  0  0  0  0  0  0  0
    1.3810   -1.0528    0.0000 C   0  0  0  0  0  0  0  0  0  0  0  0
    1.4261    0.4465    0.0000 C   0  0  0  0  0  0  0  0  0  0  0  0
    0.1501    1.2352    0.0000 O   0  0  0  0  0  0  0  0  0  0  0  0
   -1.1708    0.5246    0.0000 C   0  0  0  0  0  0  0  0  0  0  0  0
   -2.4468    1.3133    0.0000 O   0  0  0  0  0  0  0  0  0  0  0  0
   -3.7677    0.6026    0.0000 C   0  0  0  0  0  0  0  0  0  0  0  0
   -5.0437    1.3913    0.0000 C   0  0  0  0  0  0  0  0  0  0  0  0
   -4.9986    2.8907    0.0000 O   0  0  0  0  0  0  0  0  0  0  0  0
   -3.8128   -0.8967    0.0000 C   0  0  0  0  0  0  0  0  0  0  0  0
   -5.1338   -1.6073    0.0000 O   0  0  0  0  0  0  0  0  0  0  0  0
   -2.5369   -1.6854    0.0000 C   0  0  0  0  0  0  0  0  0  0  0  0
   -2.5820   -3.1847    0.0000 O   0  0  0  0  0  0  0  0  0  0  0  0
   -1.2159   -0.9748    0.0000 C   0  0  0  0  0  0  0  0  0  0  0  0
    0.0600   -1.7635    0.0000 O   0  0  0  0  0  0  0  0  0  0  0  0
    2.7471    1.1571    0.0000 C   0  0  0  0  0  0  0  0  0  0  0  0
    2.7921    2.6564    0.0000 C   0  0  0  0  0  0  0  0  0  0  0  0
    4.1131    3.3670    0.0000 C   0  0  0  0  0  0  0  0  0  0  0  0
    1.5162    3.4451    0.0000 C   0  0  0  0  0  0  0  0  0  0  0  0
    4.0230    0.3684    0.0000 C   0  0  0  0  0  0  0  0  0  0  0  0
    3.9779   -1.1309    0.0000 C   0  0  0  0  0  0  0  0  0  0  0  0
    5.2538   -1.9196    0.0000 O   0  0  0  0  0  0  0  0  0  0  0  0
  1  2  1  0
  2  3  2  0
  3  4  1  0
  4  5  1  1
  6  5  1  1
  6  7  1  0
  7  8  1  0
  8  9  1  1
  9 10  1  0
  8 11  1  0
 11 12  1  6
 11 13  1  0
 13 14  1  1
 13 15  1  0
 15 16  1  6
  4 17  1  0
 17 18  1  6
 18 19  1  0
 18 20  1  0
 17 21  1  0
 21 22  1  0
 22 23  1  1
 22  2  1  0
 15  6  1  0
M  END
>  <identifier>  (467) 
CNP0117435.1

>  <canonical_smiles>  (467) 
CC1=C[C@@H](O[C@@H]2O[C@H](CO)[C@@H](O)[C@H](O)[C@H]2O)[C@H](C(C)C)C[C@H]1O

>  <standard_inchi>  (467) 
InChI=1S/C16H28O7/c1-7(2)9-5-10(18)8(3)4-11(9)22-16-15(21)14(20)13(19)12(6-17)23-16/h4,7,9-21H,5-6H2,1-3H3/t9-,10+,11+,12+,13+,14-,15+,16+/m0/s1

>  <standard_inchi_key>  (467) 
XCQWGTGYNVGXJZ-GIIOKPNBSA-N

>  <name>  (467) 
nan

>  <iupac_name>  (467) 
(2~{R},3~{R},4~{S},5~{S},6~{R})-2-[(1~{S},4~{R},6~{S})-4-hydroxy-6-isopropyl-3-methyl-cyclohex-2-en-1-yl]oxy-6-(hydroxymethyl)tetrahydropyran-3,4,5-triol

>  <annotation_level>  (467) 
5

>  <total_atom_count>  (467) 
51

>  <heavy_atom_count>  (467) 
23

>  <molecular_weight>  (467) 
332.39

>  <exact_molecular_weight>  (467) 
332.1835

>  <molecular_formula>  (467) 
C16H28O7

>  <alogp>  (467) 
-0.85

>  <topological_polar_surface_area>  (467) 
119.61

>  <rotatable_bond_count>  (467) 
4

>  <hydrogen_bond_acceptors>  (467) 
7

>  <hydrogen_bond_donors>  (467) 
5

>  <hydrogen_bond_acceptors_lipinski>  (467) 
7

>  <hydrogen_bond_donors_lipinski>  (467) 
5

>  <lipinski_rule_of_five_violations>  (467) 
0

>  <aromatic_rings_count>  (467) 
0

>  <qed_drug_likeliness>  (467) 
0.43

>  <formal_charge>  (467) 
0

>  <fractioncsp3>  (467) 
0.88

>  <number_of_minimal_rings>  (467) 
2

>  <van_der_walls_volume>  (467) 
307.64

>  <contains_sugar>  (467) 
True

>  <contains_ring_sugars>  (467) 
True

>  <contains_linear_sugars>  (467) 
False

>  <murcko_framework>  (467) 
O1CCCCC1OC2C=CCCC2

>  <np_likeness>  (467) 
2.68

>  <chemical_class>  (467) 
Prenol lipids

>  <chemical_sub_class>  (467) 
Terpene glycosides

>  <chemical_super_class>  (467) 
Lipids and lipid-like molecules

>  <direct_parent_classification>  (467) 
Terpene glycosides

>  <np_classifier_pathway>  (467) 
Terpenoids

>  <np_classifier_superclass>  (467) 
Monoterpenoids

>  <np_classifier_class>  (467) 
nan

>  <np_classifier_is_glycoside>  (467) 
True

>  <organisms>  (467) 
Ageratina glabrata

>  <collections>  (467) 
BIOFACQUIM|Latin America dataset|Super Natural II|TCMDB-Taiwan (Traditional Chinese Medicine database)|ZINC NP

>  <dois>  (467) 
10.1021/acs.jnatprod.6b00491

>  <synonyms>  (467) 
(\u201a\u00e0\u00ed)-(3S 4S 6R)-3 6-dihydroxy-1-menthene 3-O-\u0152\u2264-d-glucopyranoside

>  <cas>  (467) 
nan

$$$$

     RDKit          2D

 31 35  0  0  0  0  0  0  0  0999 V2000
   -8.3364    0.4700    0.0000 C   0  0  0  0  0  0  0  0  0  0  0  0
   -7.3073   -0.6213    0.0000 C   0  0  0  0  0  0  0  0  0  0  0  0
   -8.5606   -1.4453    0.0000 C   0  0  0  0  0  0  0  0  0  0  0  0
   -6.7134   -1.9987    0.0000 C   0  0  0  0  0  0  0  0  0  0  0  0
   -5.2236   -2.1731    0.0000 C   0  0  0  0  0  0  0  0  0  0  0  0
   -4.3276   -0.9701    0.0000 C   0  0  0  0  0  0  0  0  0  0  0  0
   -2.8378   -1.1445    0.0000 C   0  0  0  0  0  0  0  0  0  0  0  0
   -1.9418    0.0585    0.0000 C   0  0  0  0  0  0  0  0  0  0  0  0
   -0.4520   -0.1158    0.0000 C   0  0  0  0  0  0  0  0  0  0  0  0
    0.1419   -1.4933    0.0000 C   0  0  0  0  0  0  0  0  0  0  0  0
    1.6317   -1.6677    0.0000 O   0  0  0  0  0  0  0  0  0  0  0  0
    2.5276   -0.4646    0.0000 C   0  0  0  0  0  0  0  0  0  0  0  0
    4.0175   -0.6390    0.0000 C   0  0  0  0  0  0  0  0  0  0  0  0
    4.6113   -2.0165    0.0000 C   0  0  0  0  0  0  0  0  0  0  0  0
    6.1012   -2.1909    0.0000 C   0  0  0  0  0  0  0  0  0  0  0  0
    6.9971   -0.9878    0.0000 C   0  0  0  0  0  0  0  0  0  0  0  0
    8.2505   -0.1638    0.0000 C   0  0  0  0  0  0  0  0  0  0  0  0
    8.0263   -2.0791    0.0000 C   0  0  0  0  0  0  0  0  0  0  0  0
    6.4032    0.3896    0.0000 O   0  0  0  0  0  0  0  0  0  0  0  0
    4.9134    0.5640    0.0000 C   0  0  0  0  0  0  0  0  0  0  0  0
    4.3195    1.9414    0.0000 C   0  0  0  0  0  0  0  0  0  0  0  0
    2.8297    2.1158    0.0000 C   0  0  0  0  0  0  0  0  0  0  0  0
    2.2358    3.4932    0.0000 O   0  0  0  0  0  0  0  0  0  0  0  0
    1.9338    0.9128    0.0000 C   0  0  0  0  0  0  0  0  0  0  0  0
    0.4439    1.0872    0.0000 C   0  0  0  0  0  0  0  0  0  0  0  0
   -0.1500    2.4646    0.0000 O   0  0  0  0  0  0  0  0  0  0  0  0
   -2.5357    1.4360    0.0000 C   0  0  0  0  0  0  0  0  0  0  0  0
   -1.6398    2.6390    0.0000 O   0  0  0  0  0  0  0  0  0  0  0  0
   -4.0256    1.6104    0.0000 C   0  0  0  0  0  0  0  0  0  0  0  0
   -4.9215    0.4073    0.0000 C   0  0  0  0  0  0  0  0  0  0  0  0
   -6.4113    0.5817    0.0000 O   0  0  0  0  0  0  0  0  0  0  0  0
  1  2  1  0
  2  3  1  0
  2  4  1  0
  4  5  2  0
  5  6  1  0
  6  7  2  0
  7  8  1  0
  8  9  1  0
  9 10  2  0
 10 11  1  0
 11 12  1  0
 12 13  2  0
 13 14  1  0
 14 15  2  0
 15 16  1  0
 16 17  1  0
 16 18  1  0
 16 19  1  0
 19 20  1  0
 20 21  2  0
 21 22  1  0
 22 23  1  0
 22 24  2  0
 24 25  1  0
 25 26  2  0
  8 27  2  0
 27 28  1  0
 27 29  1  0
 29 30  2  0
 30 31  1  0
 31  2  1  0
 30  6  1  0
 25  9  1  0
 24 12  1  0
 20 13  1  0
M  END
>  <identifier>  (468) 
CNP0436834.0

>  <canonical_smiles>  (468) 
CC1(C)C=CC2=CC(C3=COC4=C5C=CC(C)(C)OC5=CC(O)=C4C3=O)=C(O)C=C2O1

>  <standard_inchi>  (468) 
InChI=1S/C25H22O6/c1-24(2)7-5-13-9-15(17(26)10-19(13)30-24)16-12-29-23-14-6-8-25(3,4)31-20(14)11-18(27)21(23)22(16)28/h5-12,26-27H,1-4H3

>  <standard_inchi_key>  (468) 
LYYAHCZGHUNIDN-UHFFFAOYSA-N

>  <name>  (468) 
nan

>  <iupac_name>  (468) 
5-hydroxy-3-(7-hydroxy-2,2-dimethyl-chromen-6-yl)-8,8-dimethyl-pyrano[2,3-h]chromen-4-one

>  <annotation_level>  (468) 
5

>  <total_atom_count>  (468) 
53

>  <heavy_atom_count>  (468) 
31

>  <molecular_weight>  (468) 
418.45

>  <exact_molecular_weight>  (468) 
418.14164

>  <molecular_formula>  (468) 
C25H22O6

>  <alogp>  (468) 
5.24

>  <topological_polar_surface_area>  (468) 
89.13

>  <rotatable_bond_count>  (468) 
1

>  <hydrogen_bond_acceptors>  (468) 
6

>  <hydrogen_bond_donors>  (468) 
2

>  <hydrogen_bond_acceptors_lipinski>  (468) 
6

>  <hydrogen_bond_donors_lipinski>  (468) 
2

>  <lipinski_rule_of_five_violations>  (468) 
1

>  <aromatic_rings_count>  (468) 
3

>  <qed_drug_likeliness>  (468) 
0.56

>  <formal_charge>  (468) 
0

>  <fractioncsp3>  (468) 
0.24

>  <number_of_minimal_rings>  (468) 
5

>  <van_der_walls_volume>  (468) 
363.23

>  <contains_sugar>  (468) 
False

>  <contains_ring_sugars>  (468) 
False

>  <contains_linear_sugars>  (468) 
False

>  <murcko_framework>  (468) 
O1C=C(c2ccc3OCC=Cc3c2)Cc4ccc5OCC=Cc5c14

>  <np_likeness>  (468) 
2.19

>  <chemical_class>  (468) 
Isoflavonoids

>  <chemical_sub_class>  (468) 
Pyranoisoflavonoids

>  <chemical_super_class>  (468) 
Phenylpropanoids and polyketides

>  <direct_parent_classification>  (468) 
Pyranoisoflavonoids

>  <np_classifier_pathway>  (468) 
Shikimates and Phenylpropanoids

>  <np_classifier_superclass>  (468) 
Isoflavonoids

>  <np_classifier_class>  (468) 
Isoflavones

>  <np_classifier_is_glycoside>  (468) 
False

>  <organisms>  (468) 
Rhynchosia precatoria

>  <collections>  (468) 
BIOFACQUIM|Latin America dataset

>  <dois>  (468) 
10.1016/j.jep.2017.05.019

>  <synonyms>  (468) 
Precatorin C

>  <cas>  (468) 
nan

$$$$

     RDKit          2D

 31 35  0  0  0  0  0  0  0  0999 V2000
   -8.3364    0.4700    0.0000 C   0  0  0  0  0  0  0  0  0  0  0  0
   -7.3073   -0.6213    0.0000 C   0  0  0  0  0  0  0  0  0  0  0  0
   -8.5606   -1.4453    0.0000 C   0  0  0  0  0  0  0  0  0  0  0  0
   -6.7134   -1.9987    0.0000 C   0  0  0  0  0  0  0  0  0  0  0  0
   -5.2236   -2.1731    0.0000 C   0  0  0  0  0  0  0  0  0  0  0  0
   -4.3276   -0.9701    0.0000 C   0  0  0  0  0  0  0  0  0  0  0  0
   -2.8378   -1.1445    0.0000 C   0  0  0  0  0  0  0  0  0  0  0  0
   -1.9418    0.0585    0.0000 C   0  0  0  0  0  0  0  0  0  0  0  0
   -0.4520   -0.1158    0.0000 C   0  0  0  0  0  0  0  0  0  0  0  0
    0.1419   -1.4933    0.0000 C   0  0  0  0  0  0  0  0  0  0  0  0
    1.6317   -1.6677    0.0000 O   0  0  0  0  0  0  0  0  0  0  0  0
    2.5276   -0.4646    0.0000 C   0  0  0  0  0  0  0  0  0  0  0  0
    4.0175   -0.6390    0.0000 C   0  0  0  0  0  0  0  0  0  0  0  0
    4.6113   -2.0165    0.0000 C   0  0  0  0  0  0  0  0  0  0  0  0
    6.1012   -2.1909    0.0000 C   0  0  0  0  0  0  0  0  0  0  0  0
    6.9971   -0.9878    0.0000 C   0  0  0  0  0  0  0  0  0  0  0  0
    8.2505   -0.1638    0.0000 C   0  0  0  0  0  0  0  0  0  0  0  0
    8.0263   -2.0791    0.0000 C   0  0  0  0  0  0  0  0  0  0  0  0
    6.4032    0.3896    0.0000 O   0  0  0  0  0  0  0  0  0  0  0  0
    4.9134    0.5640    0.0000 C   0  0  0  0  0  0  0  0  0  0  0  0
    4.3195    1.9414    0.0000 C   0  0  0  0  0  0  0  0  0  0  0  0
    2.8297    2.1158    0.0000 C   0  0  0  0  0  0  0  0  0  0  0  0
    2.2358    3.4932    0.0000 O   0  0  0  0  0  0  0  0  0  0  0  0
    1.9338    0.9128    0.0000 C   0  0  0  0  0  0  0  0  0  0  0  0
    0.4439    1.0872    0.0000 C   0  0  0  0  0  0  0  0  0  0  0  0
   -0.1500    2.4646    0.0000 O   0  0  0  0  0  0  0  0  0  0  0  0
   -2.5357    1.4360    0.0000 C   0  0  0  0  0  0  0  0  0  0  0  0
   -1.6398    2.6390    0.0000 O   0  0  0  0  0  0  0  0  0  0  0  0
   -4.0256    1.6104    0.0000 C   0  0  0  0  0  0  0  0  0  0  0  0
   -4.9215    0.4073    0.0000 C   0  0  0  0  0  0  0  0  0  0  0  0
   -6.4113    0.5817    0.0000 O   0  0  0  0  0  0  0  0  0  0  0  0
  1  2  1  0
  2  3  1  0
  2  4  1  0
  4  5  2  0
  5  6  1  0
  6  7  2  0
  7  8  1  0
  9  8  1  1
  9 10  1  0
 10 11  1  0
 11 12  1  0
 12 13  2  0
 13 14  1  0
 14 15  2  0
 15 16  1  0
 16 17  1  0
 16 18  1  0
 16 19  1  0
 19 20  1  0
 20 21  2  0
 21 22  1  0
 22 23  1  0
 22 24  2  0
 24 25  1  0
 25 26  2  0
  8 27  2  0
 27 28  1  0
 27 29  1  0
 29 30  2  0
 30 31  1  0
 31  2  1  0
 30  6  1  0
 25  9  1  0
 24 12  1  0
 20 13  1  0
M  END
>  <identifier>  (469) 
CNP0436853.1

>  <canonical_smiles>  (469) 
CC1(C)C=CC2=CC([C@@H]3COC4=C5C=CC(C)(C)OC5=CC(O)=C4C3=O)=C(O)C=C2O1

>  <standard_inchi>  (469) 
InChI=1S/C25H24O6/c1-24(2)7-5-13-9-15(17(26)10-19(13)30-24)16-12-29-23-14-6-8-25(3,4)31-20(14)11-18(27)21(23)22(16)28/h5-11,16,26-27H,12H2,1-4H3/t16-/m0/s1

>  <standard_inchi_key>  (469) 
XZXMEYSQXQNHCX-INIZCTEOSA-N

>  <name>  (469) 
nan

>  <iupac_name>  (469) 
(3~{R})-5-hydroxy-3-(7-hydroxy-2,2-dimethyl-chromen-6-yl)-8,8-dimethyl-2,3-dihydropyrano[2,3-h]chromen-4-one

>  <annotation_level>  (469) 
5

>  <total_atom_count>  (469) 
55

>  <heavy_atom_count>  (469) 
31

>  <molecular_weight>  (469) 
420.46

>  <exact_molecular_weight>  (469) 
420.15729

>  <molecular_formula>  (469) 
C25H24O6

>  <alogp>  (469) 
4.83

>  <topological_polar_surface_area>  (469) 
85.22

>  <rotatable_bond_count>  (469) 
1

>  <hydrogen_bond_acceptors>  (469) 
6

>  <hydrogen_bond_donors>  (469) 
2

>  <hydrogen_bond_acceptors_lipinski>  (469) 
6

>  <hydrogen_bond_donors_lipinski>  (469) 
2

>  <lipinski_rule_of_five_violations>  (469) 
0

>  <aromatic_rings_count>  (469) 
2

>  <qed_drug_likeliness>  (469) 
0.69

>  <formal_charge>  (469) 
0

>  <fractioncsp3>  (469) 
0.32

>  <number_of_minimal_rings>  (469) 
5

>  <van_der_walls_volume>  (469) 
372.26

>  <contains_sugar>  (469) 
False

>  <contains_ring_sugars>  (469) 
False

>  <contains_linear_sugars>  (469) 
False

>  <murcko_framework>  (469) 
O1c2ccc(cc2C=CC1)C3COc4c5C=CCOc5ccc4C3

>  <np_likeness>  (469) 
2.42

>  <chemical_class>  (469) 
Isoflavonoids

>  <chemical_sub_class>  (469) 
Pyranoisoflavonoids

>  <chemical_super_class>  (469) 
Phenylpropanoids and polyketides

>  <direct_parent_classification>  (469) 
Pyranoisoflavonoids

>  <np_classifier_pathway>  (469) 
Shikimates and Phenylpropanoids

>  <np_classifier_superclass>  (469) 
Isoflavonoids

>  <np_classifier_class>  (469) 
Isoflavanones

>  <np_classifier_is_glycoside>  (469) 
False

>  <organisms>  (469) 
Rhynchosia precatoria

>  <collections>  (469) 
BIOFACQUIM|Latin America dataset

>  <dois>  (469) 
10.1016/j.jep.2017.05.019

>  <synonyms>  (469) 
Precatorin A

>  <cas>  (469) 
nan

$$$$

     RDKit          2D

 31 35  0  0  0  0  0  0  0  0999 V2000
   -8.3119   -1.2501    0.0000 C   0  0  0  0  0  0  0  0  0  0  0  0
   -7.4731   -0.0065    0.0000 C   0  0  0  0  0  0  0  0  0  0  0  0
   -8.8434    0.6036    0.0000 C   0  0  0  0  0  0  0  0  0  0  0  0
   -7.1102    1.4489    0.0000 C   0  0  0  0  0  0  0  0  0  0  0  0
   -5.6683    1.8623    0.0000 C   0  0  0  0  0  0  0  0  0  0  0  0
   -4.5893    0.8203    0.0000 C   0  0  0  0  0  0  0  0  0  0  0  0
   -3.1474    1.2337    0.0000 C   0  0  0  0  0  0  0  0  0  0  0  0
   -2.0684    0.1916    0.0000 C   0  0  0  0  0  0  0  0  0  0  0  0
   -0.6265    0.6050    0.0000 C   0  0  0  0  0  0  0  0  0  0  0  0
   -0.2636    2.0605    0.0000 C   0  0  0  0  0  0  0  0  0  0  0  0
    1.1783    2.4739    0.0000 O   0  0  0  0  0  0  0  0  0  0  0  0
    2.2573    1.4319    0.0000 C   0  0  0  0  0  0  0  0  0  0  0  0
    3.6992    1.8453    0.0000 C   0  0  0  0  0  0  0  0  0  0  0  0
    4.7782    0.8032    0.0000 C   0  0  0  0  0  0  0  0  0  0  0  0
    4.4153   -0.6522    0.0000 C   0  0  0  0  0  0  0  0  0  0  0  0
    5.4942   -1.6942    0.0000 C   0  0  0  0  0  0  0  0  0  0  0  0
    6.9361   -1.2808    0.0000 C   0  0  0  0  0  0  0  0  0  0  0  0
    7.2991    0.1746    0.0000 C   0  0  0  0  0  0  0  0  0  0  0  0
    8.1379    1.4181    0.0000 C   0  0  0  0  0  0  0  0  0  0  0  0
    8.6694   -0.4355    0.0000 C   0  0  0  0  0  0  0  0  0  0  0  0
    6.2201    1.2166    0.0000 O   0  0  0  0  0  0  0  0  0  0  0  0
    2.9734   -1.0656    0.0000 C   0  0  0  0  0  0  0  0  0  0  0  0
    2.6104   -2.5210    0.0000 O   0  0  0  0  0  0  0  0  0  0  0  0
    1.8944   -0.0236    0.0000 C   0  0  0  0  0  0  0  0  0  0  0  0
    0.4525   -0.4370    0.0000 C   0  0  0  0  0  0  0  0  0  0  0  0
    0.0895   -1.8924    0.0000 O   0  0  0  0  0  0  0  0  0  0  0  0
   -2.4313   -1.2638    0.0000 C   0  0  0  0  0  0  0  0  0  0  0  0
   -1.3524   -2.3058    0.0000 O   0  0  0  0  0  0  0  0  0  0  0  0
   -3.8733   -1.6772    0.0000 C   0  0  0  0  0  0  0  0  0  0  0  0
   -4.9522   -0.6352    0.0000 C   0  0  0  0  0  0  0  0  0  0  0  0
   -6.3941   -1.0486    0.0000 O   0  0  0  0  0  0  0  0  0  0  0  0
  1  2  1  0
  2  3  1  0
  2  4  1  0
  4  5  2  0
  5  6  1  0
  6  7  2  0
  7  8  1  0
  9  8  1  6
  9 10  1  0
 10 11  1  0
 11 12  1  0
 12 13  2  0
 13 14  1  0
 14 15  2  0
 15 16  1  0
 16 17  2  0
 17 18  1  0
 18 19  1  0
 18 20  1  0
 18 21  1  0
 15 22  1  0
 22 23  1  0
 22 24  2  0
 24 25  1  0
 25 26  2  0
  8 27  2  0
 27 28  1  0
 27 29  1  0
 29 30  2  0
 30 31  1  0
 31  2  1  0
 30  6  1  0
 25  9  1  0
 24 12  1  0
 21 14  1  0
M  END
>  <identifier>  (470) 
CNP0436849.1

>  <canonical_smiles>  (470) 
CC1(C)C=CC2=CC([C@@H]3COC4=CC5=C(C=CC(C)(C)O5)C(O)=C4C3=O)=C(O)C=C2O1

>  <standard_inchi>  (470) 
InChI=1S/C25H24O6/c1-24(2)7-5-13-9-15(17(26)10-18(13)30-24)16-12-29-20-11-19-14(6-8-25(3,4)31-19)22(27)21(20)23(16)28/h5-11,16,26-27H,12H2,1-4H3/t16-/m0/s1

>  <standard_inchi_key>  (470) 
VOBQAOCWJCLPCM-INIZCTEOSA-N

>  <name>  (470) 
nan

>  <iupac_name>  (470) 
(7~{R})-5-hydroxy-7-(7-hydroxy-2,2-dimethyl-chromen-6-yl)-2,2-dimethyl-7,8-dihydropyrano[3,2-g]chromen-6-one

>  <annotation_level>  (470) 
5

>  <total_atom_count>  (470) 
55

>  <heavy_atom_count>  (470) 
31

>  <molecular_weight>  (470) 
420.46

>  <exact_molecular_weight>  (470) 
420.15729

>  <molecular_formula>  (470) 
C25H24O6

>  <alogp>  (470) 
4.83

>  <topological_polar_surface_area>  (470) 
85.22

>  <rotatable_bond_count>  (470) 
1

>  <hydrogen_bond_acceptors>  (470) 
6

>  <hydrogen_bond_donors>  (470) 
2

>  <hydrogen_bond_acceptors_lipinski>  (470) 
6

>  <hydrogen_bond_donors_lipinski>  (470) 
2

>  <lipinski_rule_of_five_violations>  (470) 
0

>  <aromatic_rings_count>  (470) 
2

>  <qed_drug_likeliness>  (470) 
0.69

>  <formal_charge>  (470) 
0

>  <fractioncsp3>  (470) 
0.32

>  <number_of_minimal_rings>  (470) 
5

>  <van_der_walls_volume>  (470) 
370.74

>  <contains_sugar>  (470) 
False

>  <contains_ring_sugars>  (470) 
False

>  <contains_linear_sugars>  (470) 
False

>  <murcko_framework>  (470) 
O1c2ccc(cc2C=CC1)C3COc4cc5OCC=Cc5cc4C3

>  <np_likeness>  (470) 
2.50

>  <chemical_class>  (470) 
Isoflavonoids

>  <chemical_sub_class>  (470) 
Pyranoisoflavonoids

>  <chemical_super_class>  (470) 
Phenylpropanoids and polyketides

>  <direct_parent_classification>  (470) 
Pyranoisoflavonoids

>  <np_classifier_pathway>  (470) 
Shikimates and Phenylpropanoids

>  <np_classifier_superclass>  (470) 
Isoflavonoids

>  <np_classifier_class>  (470) 
Isoflavanones

>  <np_classifier_is_glycoside>  (470) 
False

>  <organisms>  (470) 
Rhynchosia precatoria

>  <collections>  (470) 
BIOFACQUIM|Latin America dataset

>  <dois>  (470) 
10.1016/j.jep.2017.05.019

>  <synonyms>  (470) 
Precatorin B

>  <cas>  (470) 
nan

$$$$

     RDKit          2D

 29 31  0  0  0  0  0  0  0  0999 V2000
   -1.2418    3.3400    0.0000 C   0  0  0  0  0  0  0  0  0  0  0  0
   -0.5032    2.0344    0.0000 C   0  0  0  0  0  0  0  0  0  0  0  0
    0.9968    2.0213    0.0000 O   0  0  0  0  0  0  0  0  0  0  0  0
    1.7354    0.7158    0.0000 C   0  0  0  0  0  0  0  0  0  0  0  0
    0.9740   -0.5767    0.0000 O   0  0  0  0  0  0  0  0  0  0  0  0
    3.2353    0.7026    0.0000 C   0  0  0  0  0  0  0  0  0  0  0  0
    3.9739   -0.6029    0.0000 C   0  0  0  0  0  0  0  0  0  0  0  0
    5.4739   -0.6160    0.0000 C   0  0  0  0  0  0  0  0  0  0  0  0
    6.2125   -1.9216    0.0000 C   0  0  0  0  0  0  0  0  0  0  0  0
    7.7124   -1.9347    0.0000 C   0  0  0  0  0  0  0  0  0  0  0  0
    8.4738   -0.6423    0.0000 C   0  0  0  0  0  0  0  0  0  0  0  0
    9.9737   -0.6554    0.0000 O   0  0  0  0  0  0  0  0  0  0  0  0
    7.7351    0.6633    0.0000 C   0  0  0  0  0  0  0  0  0  0  0  0
    8.4965    1.9557    0.0000 O   0  0  0  0  0  0  0  0  0  0  0  0
    6.2352    0.6764    0.0000 C   0  0  0  0  0  0  0  0  0  0  0  0
   -1.2645    0.7420    0.0000 C   0  0  0  0  0  0  0  0  0  0  0  0
   -0.6664   -0.6336    0.0000 C   0  0  0  0  0  0  0  0  0  0  0  0
   -1.7899   -1.6275    0.0000 C   0  0  0  0  0  0  0  0  0  0  0  0
   -3.0823   -0.8662    0.0000 C   0  0  0  0  0  0  0  0  0  0  0  0
   -4.4579   -1.4642    0.0000 C   0  0  0  0  0  0  0  0  0  0  0  0
   -4.6277   -2.9546    0.0000 O   0  0  0  0  0  0  0  0  0  0  0  0
   -5.6637   -0.5720    0.0000 C   0  0  0  0  0  0  0  0  0  0  0  0
   -5.4938    0.9184    0.0000 C   0  0  0  0  0  0  0  0  0  0  0  0
   -6.6996    1.8106    0.0000 C   0  0  0  0  0  0  0  0  0  0  0  0
   -8.0752    1.2125    0.0000 C   0  0  0  0  0  0  0  0  0  0  0  0
   -8.2450   -0.2778    0.0000 C   0  0  0  0  0  0  0  0  0  0  0  0
   -9.6206   -0.8759    0.0000 O   0  0  0  0  0  0  0  0  0  0  0  0
   -7.0393   -1.1701    0.0000 O   0  0  0  0  0  0  0  0  0  0  0  0
   -2.7576    0.5983    0.0000 O   0  0  0  0  0  0  0  0  0  0  0  0
  2  1  1  6
  2  3  1  0
  3  4  1  0
  4  5  2  0
  4  6  1  0
  6  7  2  0
  7  8  1  0
  8  9  2  0
  9 10  1  0
 10 11  2  0
 11 12  1  0
 11 13  1  0
 13 14  1  0
 13 15  2  0
  2 16  1  0
 16 17  1  6
 17 18  1  0
 19 18  1  6
 19 20  1  0
 20 21  1  6
 20 22  1  0
 22 23  1  6
 23 24  1  0
 24 25  2  0
 25 26  1  0
 26 27  2  0
 26 28  1  0
 19 29  1  0
 15  8  1  0
 29 16  1  0
 28 22  1  0
M  END
>  <identifier>  (471) 
CNP0300981.1

>  <canonical_smiles>  (471) 
C[C@H](OC(=O)/C=C/C1=CC=C(O)C(O)=C1)[C@@H]1CC[C@H]([C@H](O)[C@H]2CC=CC(=O)O2)O1

>  <standard_inchi>  (471) 
InChI=1S/C21H24O8/c1-12(27-20(25)10-6-13-5-7-14(22)15(23)11-13)16-8-9-18(28-16)21(26)17-3-2-4-19(24)29-17/h2,4-7,10-12,16-18,21-23,26H,3,8-9H2,1H3/b10-6+/t12-,16-,17+,18+,21+/m0/s1

>  <standard_inchi_key>  (471) 
QMGPOYYFOFDFEO-JPYSVIHJSA-N

>  <name>  (471) 
[(1S)-1-[(2S,5R)-5-[(S)-hydroxy-[(2R)-6-oxo-2,3-dihydropyran-2-yl]methyl]oxolan-2-yl]ethyl] (E)-3-(3,4-dihydroxyphenyl)prop-2-enoate

>  <iupac_name>  (471) 
[(1~{S})-1-[(2~{S},5~{R})-5-[(~{S})-hydroxy-[(2~{R})-6-oxo-2,3-dihydropyran-2-yl]methyl]tetrahydrofuran-2-yl]ethyl] (~{E})-3-(3,4-dihydroxyphenyl)prop-2-enoate

>  <annotation_level>  (471) 
5

>  <total_atom_count>  (471) 
53

>  <heavy_atom_count>  (471) 
29

>  <molecular_weight>  (471) 
404.42

>  <exact_molecular_weight>  (471) 
404.14712

>  <molecular_formula>  (471) 
C21H24O8

>  <alogp>  (471) 
1.82

>  <topological_polar_surface_area>  (471) 
122.52

>  <rotatable_bond_count>  (471) 
6

>  <hydrogen_bond_acceptors>  (471) 
8

>  <hydrogen_bond_donors>  (471) 
3

>  <hydrogen_bond_acceptors_lipinski>  (471) 
8

>  <hydrogen_bond_donors_lipinski>  (471) 
3

>  <lipinski_rule_of_five_violations>  (471) 
0

>  <aromatic_rings_count>  (471) 
1

>  <qed_drug_likeliness>  (471) 
0.37

>  <formal_charge>  (471) 
0

>  <fractioncsp3>  (471) 
0.43

>  <number_of_minimal_rings>  (471) 
3

>  <van_der_walls_volume>  (471) 
357.91

>  <contains_sugar>  (471) 
False

>  <contains_ring_sugars>  (471) 
False

>  <contains_linear_sugars>  (471) 
False

>  <murcko_framework>  (471) 
O(CC=Cc1ccccc1)CC2OC(CC2)CC3OCC=CC3

>  <np_likeness>  (471) 
1.97

>  <chemical_class>  (471) 
Cinnamic acids and derivatives

>  <chemical_sub_class>  (471) 
Hydroxycinnamic acids and derivatives

>  <chemical_super_class>  (471) 
Phenylpropanoids and polyketides

>  <direct_parent_classification>  (471) 
Hydroxycinnamic acids

>  <np_classifier_pathway>  (471) 
Shikimates and Phenylpropanoids

>  <np_classifier_superclass>  (471) 
nan

>  <np_classifier_class>  (471) 
nan

>  <np_classifier_is_glycoside>  (471) 
False

>  <organisms>  (471) 
Hyptis brevipes

>  <collections>  (471) 
BIOFACQUIM|Latin America dataset|NPASS

>  <dois>  (471) 
10.1021/acs.jnatprod.6b00953

>  <synonyms>  (471) 
CHEMBL4098380|Brevipolide O

>  <cas>  (471) 
nan

$$$$

     RDKit          2D

 30 33  0  0  0  0  0  0  0  0999 V2000
   -2.1836   -4.3355    0.0000 C   0  0  0  0  0  0  0  0  0  0  0  0
   -0.7410   -3.9244    0.0000 C   0  0  0  0  0  0  0  0  0  0  0  0
    0.3363   -4.9681    0.0000 C   0  0  0  0  0  0  0  0  0  0  0  0
   -0.3758   -2.4695    0.0000 C   0  0  0  0  0  0  0  0  0  0  0  0
    1.0667   -2.0584    0.0000 C   0  0  0  0  0  0  0  0  0  0  0  0
    1.4320   -0.6035    0.0000 C   0  0  0  0  0  0  0  0  0  0  0  0
    2.8745   -0.1924    0.0000 C   0  0  0  0  0  0  0  0  0  0  0  0
    3.9518   -1.2361    0.0000 O   0  0  0  0  0  0  0  0  0  0  0  0
    5.3944   -0.8249    0.0000 C   0  0  0  0  0  0  0  0  0  0  0  0
    6.8906   -0.9320    0.0000 C   0  0  0  0  0  0  0  0  0  0  0  0
    5.5488   -2.3170    0.0000 C   0  0  0  0  0  0  0  0  0  0  0  0
    5.7596    0.6299    0.0000 C   0  0  0  0  0  0  0  0  0  0  0  0
    4.6823    1.6736    0.0000 C   0  0  0  0  0  0  0  0  0  0  0  0
    3.2397    1.2625    0.0000 C   0  0  0  0  0  0  0  0  0  0  0  0
    2.1624    2.3062    0.0000 C   0  0  0  0  0  0  0  0  0  0  0  0
    2.5276    3.7611    0.0000 O   0  0  0  0  0  0  0  0  0  0  0  0
    0.7198    1.8951    0.0000 C   0  0  0  0  0  0  0  0  0  0  0  0
    0.3546    0.4402    0.0000 C   0  0  0  0  0  0  0  0  0  0  0  0
   -1.0879    0.0291    0.0000 O   0  0  0  0  0  0  0  0  0  0  0  0
   -2.1653    1.0728    0.0000 C   0  0  0  0  0  0  0  0  0  0  0  0
   -3.6078    0.6616    0.0000 C   0  0  0  0  0  0  0  0  0  0  0  0
   -4.6852    1.7054    0.0000 C   0  0  0  0  0  0  0  0  0  0  0  0
   -6.1277    1.2942    0.0000 C   0  0  0  0  0  0  0  0  0  0  0  0
   -6.4929   -0.1606    0.0000 C   0  0  0  0  0  0  0  0  0  0  0  0
   -7.9355   -0.5718    0.0000 O   0  0  0  0  0  0  0  0  0  0  0  0
   -5.4156   -1.2044    0.0000 C   0  0  0  0  0  0  0  0  0  0  0  0
   -3.9730   -0.7932    0.0000 C   0  0  0  0  0  0  0  0  0  0  0  0
   -1.8001    2.5276    0.0000 C   0  0  0  0  0  0  0  0  0  0  0  0
   -0.3575    2.9388    0.0000 C   0  0  0  0  0  0  0  0  0  0  0  0
    0.0077    4.3936    0.0000 O   0  0  0  0  0  0  0  0  0  0  0  0
  1  2  1  0
  2  3  1  0
  2  4  2  0
  4  5  1  0
  5  6  1  0
  6  7  2  0
  7  8  1  0
  8  9  1  0
  9 10  1  0
  9 11  1  0
  9 12  1  0
 12 13  2  0
 13 14  1  0
 14 15  2  0
 15 16  1  0
 15 17  1  0
 17 18  2  0
 18 19  1  0
 19 20  1  0
 20 21  1  6
 21 22  2  0
 22 23  1  0
 23 24  2  0
 24 25  1  0
 24 26  1  0
 26 27  2  0
 20 28  1  0
 28 29  1  0
 29 30  2  0
 18  6  1  0
 27 21  1  0
 14  7  1  0
 29 17  1  0
M  END
>  <identifier>  (472) 
CNP0317311.1

>  <canonical_smiles>  (472) 
CC(C)=CCC1=C2OC(C)(C)C=CC2=C(O)C2=C1O[C@H](C1=CC=C(O)C=C1)CC2=O

>  <standard_inchi>  (472) 
InChI=1S/C25H26O5/c1-14(2)5-10-18-23-17(11-12-25(3,4)30-23)22(28)21-19(27)13-20(29-24(18)21)15-6-8-16(26)9-7-15/h5-9,11-12,20,26,28H,10,13H2,1-4H3/t20-/m0/s1

>  <standard_inchi_key>  (472) 
PDTJZCUQXSFLDW-FQEVSTJZSA-N

>  <name>  (472) 
lupinifolin

>  <iupac_name>  (472) 
(8~{S})-5-hydroxy-8-(4-hydroxyphenyl)-2,2-dimethyl-10-(3-methylbut-2-enyl)-7,8-dihydropyrano[3,2-g]chromen-6-one

>  <annotation_level>  (472) 
5

>  <total_atom_count>  (472) 
56

>  <heavy_atom_count>  (472) 
30

>  <molecular_weight>  (472) 
406.48

>  <exact_molecular_weight>  (472) 
406.17802

>  <molecular_formula>  (472) 
C25H26O5

>  <alogp>  (472) 
5.50

>  <topological_polar_surface_area>  (472) 
75.99

>  <rotatable_bond_count>  (472) 
3

>  <hydrogen_bond_acceptors>  (472) 
5

>  <hydrogen_bond_donors>  (472) 
2

>  <hydrogen_bond_acceptors_lipinski>  (472) 
5

>  <hydrogen_bond_donors_lipinski>  (472) 
2

>  <lipinski_rule_of_five_violations>  (472) 
1

>  <aromatic_rings_count>  (472) 
2

>  <qed_drug_likeliness>  (472) 
0.66

>  <formal_charge>  (472) 
0

>  <fractioncsp3>  (472) 
0.32

>  <number_of_minimal_rings>  (472) 
4

>  <van_der_walls_volume>  (472) 
373.19

>  <contains_sugar>  (472) 
False

>  <contains_ring_sugars>  (472) 
False

>  <contains_linear_sugars>  (472) 
False

>  <murcko_framework>  (472) 
O1c2cc3OC(c4ccccc4)CCc3cc2C=CC1

>  <np_likeness>  (472) 
2.80

>  <chemical_class>  (472) 
Flavonoids

>  <chemical_sub_class>  (472) 
Pyranoflavonoids

>  <chemical_super_class>  (472) 
Phenylpropanoids and polyketides

>  <direct_parent_classification>  (472) 
Pyranoflavonoids

>  <np_classifier_pathway>  (472) 
Shikimates and Phenylpropanoids

>  <np_classifier_superclass>  (472) 
Flavonoids

>  <np_classifier_class>  (472) 
Flavanones

>  <np_classifier_is_glycoside>  (472) 
False

>  <organisms>  (472) 
Citrus sinensis|Deguelia hatschbachii|Derris hainesiana|Eriosema chinense|Erythrina fusca|Erythrina senegalensis|Flemingia macrophylla|Flemingia philippinensis|Flemingia wallichii|Lonchocarpus guatemalensis|Lonchocarpus miniflorus|Mundulea sericea|Rhynchosia precatoria|Sophora tetraptera|Sophora tonkinensis|Tephrosia lupinifolia

>  <collections>  (472) 
AfroDB|AfroMalariaDB|Australian natural products|BIOFACQUIM|CMAUP (cCollective molecular activities of useful plants)|KNApSaCK|Latin America dataset|Mitishamba database|NPACT|NPASS|NuBBEDB|Super Natural II|TCMDB-Taiwan (Traditional Chinese Medicine database)|TIPdb (database of Taiwan indigenous plants)|VietHerb|ZINC NP

>  <dois>  (472) 
10.1016/j.jep.2017.05.019|10.1016/s0031-9422(98)00551-2|10.1021/jf801103p

>  <synonyms>  (472) 
(8S)-5-hydroxy-8-(4-hydroxyphenyl)-2|2-dimethyl-10-(3-methylbut-2-enyl)-7|8-dihydropyrano3|2-gchromen-6-one|55890-27-2|CHEMBL559980|DTXSID201318262|BDBM50495310|Lupinifolin|(8S)-5-hydroxy-8-(4-hydroxyphenyl)-2|2-dimethyl-10-(3-methylbut-2-enyl)-7|8-dihy

>  <cas>  (472) 
55890-27-2

$$$$

     RDKit          2D

 31 34  0  0  0  0  0  0  0  0999 V2000
   -7.0556    4.0969    0.0000 C   0  0  0  0  0  0  0  0  0  0  0  0
   -7.1559    2.6003    0.0000 C   0  0  0  0  0  0  0  0  0  0  0  0
   -8.5021    1.9388    0.0000 C   0  0  0  0  0  0  0  0  0  0  0  0
   -5.9099    1.7651    0.0000 C   0  0  0  0  0  0  0  0  0  0  0  0
   -6.0101    0.2685    0.0000 C   0  0  0  0  0  0  0  0  0  0  0  0
   -4.7641   -0.5667    0.0000 C   0  0  0  0  0  0  0  0  0  0  0  0
   -3.4179    0.0948    0.0000 C   0  0  0  0  0  0  0  0  0  0  0  0
   -2.1719   -0.7403    0.0000 C   0  0  0  0  0  0  0  0  0  0  0  0
   -0.8256   -0.0788    0.0000 C   0  0  0  0  0  0  0  0  0  0  0  0
   -0.7253    1.4178    0.0000 C   0  0  0  0  0  0  0  0  0  0  0  0
    0.6209    2.0793    0.0000 O   0  0  0  0  0  0  0  0  0  0  0  0
    1.8669    1.2441    0.0000 C   0  0  0  0  0  0  0  0  0  0  0  0
    3.2132    1.9056    0.0000 C   0  0  0  0  0  0  0  0  0  0  0  0
    4.4592    1.0705    0.0000 C   0  0  0  0  0  0  0  0  0  0  0  0
    4.3589   -0.4262    0.0000 C   0  0  0  0  0  0  0  0  0  0  0  0
    5.6049   -1.2613    0.0000 C   0  0  0  0  0  0  0  0  0  0  0  0
    6.9512   -0.5998    0.0000 C   0  0  0  0  0  0  0  0  0  0  0  0
    7.0515    0.8968    0.0000 C   0  0  0  0  0  0  0  0  0  0  0  0
    7.6576    2.2689    0.0000 C   0  0  0  0  0  0  0  0  0  0  0  0
    8.5080    0.5382    0.0000 C   0  0  0  0  0  0  0  0  0  0  0  0
    5.8055    1.7320    0.0000 O   0  0  0  0  0  0  0  0  0  0  0  0
    3.0127   -1.0876    0.0000 C   0  0  0  0  0  0  0  0  0  0  0  0
    2.9124   -2.5843    0.0000 O   0  0  0  0  0  0  0  0  0  0  0  0
    1.7667   -0.2525    0.0000 C   0  0  0  0  0  0  0  0  0  0  0  0
    0.4204   -0.9140    0.0000 C   0  0  0  0  0  0  0  0  0  0  0  0
    0.3201   -2.4106    0.0000 O   0  0  0  0  0  0  0  0  0  0  0  0
   -2.2721   -2.2370    0.0000 C   0  0  0  0  0  0  0  0  0  0  0  0
   -1.0261   -3.0721    0.0000 O   0  0  0  0  0  0  0  0  0  0  0  0
   -3.6184   -2.8985    0.0000 C   0  0  0  0  0  0  0  0  0  0  0  0
   -4.8644   -2.0633    0.0000 C   0  0  0  0  0  0  0  0  0  0  0  0
   -6.2107   -2.7248    0.0000 O   0  0  0  0  0  0  0  0  0  0  0  0
  1  2  1  0
  2  3  1  0
  2  4  2  0
  4  5  1  0
  5  6  1  0
  6  7  2  0
  7  8  1  0
  9  8  1  6
  9 10  1  0
 10 11  1  0
 11 12  1  0
 12 13  2  0
 13 14  1  0
 14 15  2  0
 15 16  1  0
 16 17  2  0
 17 18  1  0
 18 19  1  0
 18 20  1  0
 18 21  1  0
 15 22  1  0
 22 23  1  0
 22 24  2  0
 24 25  1  0
 25 26  2  0
  8 27  2  0
 27 28  1  0
 27 29  1  0
 29 30  2  0
 30 31  1  0
 30  6  1  0
 25  9  1  0
 24 12  1  0
 21 14  1  0
M  END
>  <identifier>  (473) 
CNP0318323.1

>  <canonical_smiles>  (473) 
CC(C)=CCC1=CC([C@@H]2COC3=CC4=C(C=CC(C)(C)O4)C(O)=C3C2=O)=C(O)C=C1O

>  <standard_inchi>  (473) 
InChI=1S/C25H26O6/c1-13(2)5-6-14-9-16(19(27)10-18(14)26)17-12-30-21-11-20-15(7-8-25(3,4)31-20)23(28)22(21)24(17)29/h5,7-11,17,26-28H,6,12H2,1-4H3/t17-/m0/s1

>  <standard_inchi_key>  (473) 
BAKSOIVZFARRJC-KRWDZBQOSA-N

>  <name>  (473) 
nan

>  <iupac_name>  (473) 
(7~{R})-7-[2,4-dihydroxy-5-(3-methylbut-2-enyl)phenyl]-5-hydroxy-2,2-dimethyl-7,8-dihydropyrano[3,2-g]chromen-6-one

>  <annotation_level>  (473) 
5

>  <total_atom_count>  (473) 
57

>  <heavy_atom_count>  (473) 
31

>  <molecular_weight>  (473) 
422.48

>  <exact_molecular_weight>  (473) 
422.17294

>  <molecular_formula>  (473) 
C25H26O6

>  <alogp>  (473) 
4.86

>  <topological_polar_surface_area>  (473) 
96.22

>  <rotatable_bond_count>  (473) 
3

>  <hydrogen_bond_acceptors>  (473) 
6

>  <hydrogen_bond_donors>  (473) 
3

>  <hydrogen_bond_acceptors_lipinski>  (473) 
6

>  <hydrogen_bond_donors_lipinski>  (473) 
3

>  <lipinski_rule_of_five_violations>  (473) 
0

>  <aromatic_rings_count>  (473) 
2

>  <qed_drug_likeliness>  (473) 
0.61

>  <formal_charge>  (473) 
0

>  <fractioncsp3>  (473) 
0.32

>  <number_of_minimal_rings>  (473) 
4

>  <van_der_walls_volume>  (473) 
380.41

>  <contains_sugar>  (473) 
False

>  <contains_ring_sugars>  (473) 
False

>  <contains_linear_sugars>  (473) 
False

>  <murcko_framework>  (473) 
O1c2cc3OCC(c4ccccc4)Cc3cc2C=CC1

>  <np_likeness>  (473) 
2.87

>  <chemical_class>  (473) 
Isoflavonoids

>  <chemical_sub_class>  (473) 
Isoflavans

>  <chemical_super_class>  (473) 
Phenylpropanoids and polyketides

>  <direct_parent_classification>  (473) 
Isoflavanols

>  <np_classifier_pathway>  (473) 
Shikimates and Phenylpropanoids

>  <np_classifier_superclass>  (473) 
Isoflavonoids

>  <np_classifier_class>  (473) 
Isoflavanones

>  <np_classifier_is_glycoside>  (473) 
False

>  <organisms>  (473) 
Cajanus cajan|Rhynchosia precatoria|Sophora tetraptera

>  <collections>  (473) 
BIOFACQUIM|KNApSaCK|Latin America dataset|TIPdb (database of Taiwan indigenous plants)

>  <dois>  (473) 
10.1016/j.jep.2017.05.019

>  <synonyms>  (473) 
Cajanone

>  <cas>  (473) 
nan

$$$$

     RDKit          2D

 31 34  0  0  0  0  0  0  0  0999 V2000
   -1.9403   -4.5184    0.0000 C   0  0  0  0  0  0  0  0  0  0  0  0
   -0.5123   -4.0590    0.0000 C   0  0  0  0  0  0  0  0  0  0  0  0
    0.5994   -5.0660    0.0000 C   0  0  0  0  0  0  0  0  0  0  0  0
   -0.1961   -2.5928    0.0000 C   0  0  0  0  0  0  0  0  0  0  0  0
    1.2318   -2.1335    0.0000 C   0  0  0  0  0  0  0  0  0  0  0  0
    1.5480   -0.6672    0.0000 C   0  0  0  0  0  0  0  0  0  0  0  0
    2.9760   -0.2079    0.0000 C   0  0  0  0  0  0  0  0  0  0  0  0
    4.0877   -1.2148    0.0000 O   0  0  0  0  0  0  0  0  0  0  0  0
    5.5157   -0.7555    0.0000 C   0  0  0  0  0  0  0  0  0  0  0  0
    7.0146   -0.8123    0.0000 C   0  0  0  0  0  0  0  0  0  0  0  0
    5.7200   -2.2416    0.0000 C   0  0  0  0  0  0  0  0  0  0  0  0
    5.8319    0.7107    0.0000 C   0  0  0  0  0  0  0  0  0  0  0  0
    4.7201    1.7177    0.0000 C   0  0  0  0  0  0  0  0  0  0  0  0
    3.2922    1.2584    0.0000 C   0  0  0  0  0  0  0  0  0  0  0  0
    2.1804    2.2654    0.0000 C   0  0  0  0  0  0  0  0  0  0  0  0
    2.4966    3.7317    0.0000 O   0  0  0  0  0  0  0  0  0  0  0  0
    0.7525    1.8061    0.0000 C   0  0  0  0  0  0  0  0  0  0  0  0
    0.4363    0.3398    0.0000 C   0  0  0  0  0  0  0  0  0  0  0  0
   -0.9917   -0.1195    0.0000 O   0  0  0  0  0  0  0  0  0  0  0  0
   -2.1034    0.8875    0.0000 C   0  0  0  0  0  0  0  0  0  0  0  0
   -3.5314    0.4282    0.0000 C   0  0  0  0  0  0  0  0  0  0  0  0
   -4.6431    1.4352    0.0000 C   0  0  0  0  0  0  0  0  0  0  0  0
   -6.0711    0.9759    0.0000 C   0  0  0  0  0  0  0  0  0  0  0  0
   -6.3873   -0.4904    0.0000 C   0  0  0  0  0  0  0  0  0  0  0  0
   -7.8152   -0.9497    0.0000 O   0  0  0  0  0  0  0  0  0  0  0  0
   -5.2755   -1.4974    0.0000 C   0  0  0  0  0  0  0  0  0  0  0  0
   -3.8476   -1.0381    0.0000 C   0  0  0  0  0  0  0  0  0  0  0  0
   -1.7872    2.3538    0.0000 C   0  0  0  0  0  0  0  0  0  0  0  0
   -2.8989    3.3608    0.0000 O   0  0  0  0  0  0  0  0  0  0  0  0
   -0.3593    2.8131    0.0000 C   0  0  0  0  0  0  0  0  0  0  0  0
   -0.0430    4.2794    0.0000 O   0  0  0  0  0  0  0  0  0  0  0  0
  1  2  1  0
  2  3  1  0
  2  4  2  0
  4  5  1  0
  5  6  1  0
  6  7  2  0
  7  8  1  0
  8  9  1  0
  9 10  1  0
  9 11  1  0
  9 12  1  0
 12 13  2  0
 13 14  1  0
 14 15  2  0
 15 16  1  0
 15 17  1  0
 17 18  2  0
 18 19  1  0
 19 20  1  0
 20 21  1  6
 21 22  2  0
 22 23  1  0
 23 24  2  0
 24 25  1  0
 24 26  1  0
 26 27  2  0
 20 28  1  0
 28 29  1  1
 28 30  1  0
 30 31  2  0
 18  6  1  0
 27 21  1  0
 14  7  1  0
 30 17  1  0
M  END
>  <identifier>  (474) 
CNP0324069.1

>  <canonical_smiles>  (474) 
CC(C)=CCC1=C2OC(C)(C)C=CC2=C(O)C2=C1O[C@H](C1=CC=C(O)C=C1)[C@@H](O)C2=O

>  <standard_inchi>  (474) 
InChI=1S/C25H26O6/c1-13(2)5-10-17-23-16(11-12-25(3,4)31-23)19(27)18-20(28)21(29)22(30-24(17)18)14-6-8-15(26)9-7-14/h5-9,11-12,21-22,26-27,29H,10H2,1-4H3/t21-,22+/m0/s1

>  <standard_inchi_key>  (474) 
VRUKIMJALJVJOM-FCHUYYIVSA-N

>  <name>  (474) 
LUPINIFOLINOL

>  <iupac_name>  (474) 
(7~{R},8~{R})-5,7-dihydroxy-8-(4-hydroxyphenyl)-2,2-dimethyl-10-(3-methylbut-2-enyl)-7,8-dihydropyrano[3,2-g]chromen-6-one

>  <annotation_level>  (474) 
5

>  <total_atom_count>  (474) 
57

>  <heavy_atom_count>  (474) 
31

>  <molecular_weight>  (474) 
422.48

>  <exact_molecular_weight>  (474) 
422.17294

>  <molecular_formula>  (474) 
C25H26O6

>  <alogp>  (474) 
4.47

>  <topological_polar_surface_area>  (474) 
96.22

>  <rotatable_bond_count>  (474) 
3

>  <hydrogen_bond_acceptors>  (474) 
6

>  <hydrogen_bond_donors>  (474) 
3

>  <hydrogen_bond_acceptors_lipinski>  (474) 
6

>  <hydrogen_bond_donors_lipinski>  (474) 
3

>  <lipinski_rule_of_five_violations>  (474) 
0

>  <aromatic_rings_count>  (474) 
2

>  <qed_drug_likeliness>  (474) 
0.63

>  <formal_charge>  (474) 
0

>  <fractioncsp3>  (474) 
0.32

>  <number_of_minimal_rings>  (474) 
4

>  <van_der_walls_volume>  (474) 
381.02

>  <contains_sugar>  (474) 
False

>  <contains_ring_sugars>  (474) 
False

>  <contains_linear_sugars>  (474) 
False

>  <murcko_framework>  (474) 
O1c2cc3OC(c4ccccc4)CCc3cc2C=CC1

>  <np_likeness>  (474) 
3.01

>  <chemical_class>  (474) 
Flavonoids

>  <chemical_sub_class>  (474) 
Pyranoflavonoids

>  <chemical_super_class>  (474) 
Phenylpropanoids and polyketides

>  <direct_parent_classification>  (474) 
Pyranoflavonoids

>  <np_classifier_pathway>  (474) 
Shikimates and Phenylpropanoids

>  <np_classifier_superclass>  (474) 
Flavonoids

>  <np_classifier_class>  (474) 
Dihydroflavonols

>  <np_classifier_is_glycoside>  (474) 
False

>  <organisms>  (474) 
Eriosema chinense|Lonchocarpus guatemalensis|Macaranga conifera|Millettia pachycarpa|Rhynchosia precatoria|Tephrosia lupinifolia

>  <collections>  (474) 
AfroDB|BIOFACQUIM|CMAUP (cCollective molecular activities of useful plants)|KNApSaCK|Latin America dataset|NPASS|NPEdia|Super Natural II|TCMDB-Taiwan (Traditional Chinese Medicine database)|TIPdb (database of Taiwan indigenous plants)|ZINC NP

>  <dois>  (474) 
10.1016/j.jep.2017.05.019

>  <synonyms>  (474) 
CHEMBL559586|SCHEMBL6668491|Lupinifolinol

>  <cas>  (474) 
nan

$$$$

     RDKit          2D

 34 38  0  0  0  0  0  0  0  0999 V2000
    2.7602   -3.4429    0.0000 C   0  0  0  0  0  0  0  0  0  0  0  0
    4.1509   -2.8810    0.0000 C   0  0  0  0  0  0  0  0  0  0  0  0
    5.3329   -3.8045    0.0000 C   0  0  0  0  0  0  0  0  0  0  0  0
    4.3597   -1.3956    0.0000 C   0  0  0  0  0  0  0  0  0  0  0  0
    5.6841   -0.6914    0.0000 C   0  0  0  0  0  0  0  0  0  0  0  0
    5.4237    0.7858    0.0000 C   0  0  0  0  0  0  0  0  0  0  0  0
    3.9383    0.9946    0.0000 C   0  0  0  0  0  0  0  0  0  0  0  0
    4.7332    2.2666    0.0000 C   0  0  0  0  0  0  0  0  0  0  0  0
    4.0290    3.5911    0.0000 O   0  0  0  0  0  0  0  0  0  0  0  0
    6.2323    2.2143    0.0000 O   0  0  0  0  0  0  0  0  0  0  0  0
    3.0995    2.2381    0.0000 C   0  0  0  0  0  0  0  0  0  0  0  0
    1.6031    2.1335    0.0000 C   0  0  0  0  0  0  0  0  0  0  0  0
    0.9456    0.7853    0.0000 C   0  0  0  0  0  0  0  0  0  0  0  0
    0.1068    2.0289    0.0000 C   0  0  0  0  0  0  0  0  0  0  0  0
    1.7844   -0.4582    0.0000 C   0  0  0  0  0  0  0  0  0  0  0  0
    1.1268   -1.8064    0.0000 C   0  0  0  0  0  0  0  0  0  0  0  0
   -0.3696   -1.9111    0.0000 C   0  0  0  0  0  0  0  0  0  0  0  0
   -1.2083   -0.6675    0.0000 C   0  0  0  0  0  0  0  0  0  0  0  0
   -2.7047   -0.7721    0.0000 C   0  0  0  0  0  0  0  0  0  0  0  0
   -1.8659   -2.0157    0.0000 C   0  0  0  0  0  0  0  0  0  0  0  0
   -3.3622   -2.1203    0.0000 C   0  0  0  0  0  0  0  0  0  0  0  0
   -4.8586   -2.2249    0.0000 C   0  0  0  0  0  0  0  0  0  0  0  0
   -5.6974   -0.9814    0.0000 C   0  0  0  0  0  0  0  0  0  0  0  0
   -7.1937   -1.0860    0.0000 O   0  0  0  0  0  0  0  0  0  0  0  0
   -5.0398    0.3668    0.0000 C   0  0  0  0  0  0  0  0  0  0  0  0
   -4.8830    1.8586    0.0000 C   0  0  0  0  0  0  0  0  0  0  0  0
   -6.4817    0.7803    0.0000 C   0  0  0  0  0  0  0  0  0  0  0  0
   -6.8446    2.2357    0.0000 O   0  0  0  0  0  0  0  0  0  0  0  0
   -3.5435    0.4714    0.0000 C   0  0  0  0  0  0  0  0  0  0  0  0
   -2.8859    1.8196    0.0000 C   0  0  0  0  0  0  0  0  0  0  0  0
   -1.3895    1.9243    0.0000 C   0  0  0  0  0  0  0  0  0  0  0  0
   -0.5508    0.6807    0.0000 C   0  0  0  0  0  0  0  0  0  0  0  0
    0.2880   -0.5629    0.0000 C   0  0  0  0  0  0  0  0  0  0  0  0
    3.2807   -0.3536    0.0000 C   0  0  0  0  0  0  0  0  0  0  0  0
  1  2  2  0
  2  3  1  0
  4  2  1  1
  4  5  1  0
  5  6  1  0
  6  7  1  0
  7  8  1  6
  8  9  2  0
  8 10  1  0
  7 11  1  0
 11 12  1  0
 12 13  1  0
 13 14  1  1
 13 15  1  0
 15 16  1  0
 16 17  1  0
 17 18  1  0
 18 19  1  0
 19 20  1  6
 19 21  1  0
 21 22  1  0
 22 23  1  0
 23 24  1  1
 23 25  1  0
 25 26  1  1
 25 27  1  0
 27 28  1  0
 25 29  1  0
 29 30  1  0
 30 31  1  0
 31 32  1  0
 32 33  1  6
 15 34  1  0
 34  4  1  0
 34  7  1  0
 32 13  1  0
 32 18  1  0
 29 19  1  0
M  END
>  <identifier>  (475) 
CNP0139464.1

>  <canonical_smiles>  (475) 
C=C(C)[C@@H]1CC[C@]2(C(=O)O)CC[C@]3(C)C(CCC4[C@@]5(C)CC[C@@H](O)[C@](C)(CO)C5CC[C@]43C)C12

>  <standard_inchi>  (475) 
InChI=1S/C30H48O4/c1-18(2)19-9-14-30(25(33)34)16-15-28(5)20(24(19)30)7-8-22-26(3)12-11-23(32)27(4,17-31)21(26)10-13-29(22,28)6/h19-24,31-32H,1,7-17H2,2-6H3,(H,33,34)/t19-,20?,21?,22?,23+,24?,26-,27+,28+,29+,30-/m0/s1

>  <standard_inchi_key>  (475) 
HXWLKAXCQLXHML-FDQCZKTDSA-N

>  <name>  (475) 
nan

>  <iupac_name>  (475) 
(1~{R},3~{a}~{S},5~{a}~{R},5~{b}~{R},8~{S},9~{R},11~{a}~{R})-9-hydroxy-8-(hydroxymethyl)-1-isopropenyl-5~{a},5~{b},8,11~{a}-tetramethyl-1,2,3,4,5,6,7,7~{a},9,10,11,11~{b},12,13,13~{a},13~{b}-hexadecahydrocyclopenta[a]chrysene-3~{a}-carboxylic acid

>  <annotation_level>  (475) 
5

>  <total_atom_count>  (475) 
82

>  <heavy_atom_count>  (475) 
34

>  <molecular_weight>  (475) 
472.71

>  <exact_molecular_weight>  (475) 
472.35526

>  <molecular_formula>  (475) 
C30H48O4

>  <alogp>  (475) 
6.06

>  <topological_polar_surface_area>  (475) 
77.76

>  <rotatable_bond_count>  (475) 
3

>  <hydrogen_bond_acceptors>  (475) 
3

>  <hydrogen_bond_donors>  (475) 
3

>  <hydrogen_bond_acceptors_lipinski>  (475) 
3

>  <hydrogen_bond_donors_lipinski>  (475) 
3

>  <lipinski_rule_of_five_violations>  (475) 
1

>  <aromatic_rings_count>  (475) 
0

>  <qed_drug_likeliness>  (475) 
0.44

>  <formal_charge>  (475) 
0

>  <fractioncsp3>  (475) 
0.90

>  <number_of_minimal_rings>  (475) 
5

>  <van_der_walls_volume>  (475) 
465.39

>  <contains_sugar>  (475) 
False

>  <contains_ring_sugars>  (475) 
False

>  <contains_linear_sugars>  (475) 
False

>  <murcko_framework>  (475) 
C1CCC2C(C1)CCC3C2CCC4C5CCCC5CCC43

>  <np_likeness>  (475) 
3.02

>  <chemical_class>  (475) 
Steroids and steroid derivatives

>  <chemical_sub_class>  (475) 
Hydroxysteroids

>  <chemical_super_class>  (475) 
Lipids and lipid-like molecules

>  <direct_parent_classification>  (475) 
Hydroxysteroids

>  <np_classifier_pathway>  (475) 
Terpenoids

>  <np_classifier_superclass>  (475) 
Triterpenoids

>  <np_classifier_class>  (475) 
Lupane triterpenoids

>  <np_classifier_is_glycoside>  (475) 
False

>  <organisms>  (475) 
Phoradendron vernicosum

>  <collections>  (475) 
BIOFACQUIM|Latin America dataset

>  <dois>  (475) 
10.1021/acs.jnatprod.7b00177

>  <synonyms>  (475) 
3\u0152\u00b1 24-dihydroxylup-20(29)-en-28-oic acid

>  <cas>  (475) 
nan

$$$$

     RDKit          2D

 37 42  0  0  0  0  0  0  0  0999 V2000
   -3.4648   -3.4433    0.0000 C   0  0  0  0  0  0  0  0  0  0  0  0
   -4.8544   -2.8786    0.0000 C   0  0  0  0  0  0  0  0  0  0  0  0
   -6.0383   -3.7997    0.0000 C   0  0  0  0  0  0  0  0  0  0  0  0
   -5.0602   -1.3928    0.0000 C   0  0  0  0  0  0  0  0  0  0  0  0
   -6.3833   -0.6859    0.0000 C   0  0  0  0  0  0  0  0  0  0  0  0
   -6.1199    0.7907    0.0000 C   0  0  0  0  0  0  0  0  0  0  0  0
   -4.6340    0.9966    0.0000 C   0  0  0  0  0  0  0  0  0  0  0  0
   -5.4264    2.2702    0.0000 C   0  0  0  0  0  0  0  0  0  0  0  0
   -6.9256    2.2208    0.0000 O   0  0  0  0  0  0  0  0  0  0  0  0
   -4.7195    3.5932    0.0000 O   0  0  0  0  0  0  0  0  0  0  0  0
   -3.7928    2.2384    0.0000 C   0  0  0  0  0  0  0  0  0  0  0  0
   -2.2966    2.1308    0.0000 C   0  0  0  0  0  0  0  0  0  0  0  0
   -1.6418    0.7813    0.0000 C   0  0  0  0  0  0  0  0  0  0  0  0
   -0.8005    2.0232    0.0000 C   0  0  0  0  0  0  0  0  0  0  0  0
   -2.4830   -0.4606    0.0000 C   0  0  0  0  0  0  0  0  0  0  0  0
   -1.8282   -1.8101    0.0000 C   0  0  0  0  0  0  0  0  0  0  0  0
   -0.3320   -1.9177    0.0000 C   0  0  0  0  0  0  0  0  0  0  0  0
    0.5092   -0.6758    0.0000 C   0  0  0  0  0  0  0  0  0  0  0  0
    2.0054   -0.7834    0.0000 C   0  0  0  0  0  0  0  0  0  0  0  0
    1.1641   -2.0253    0.0000 C   0  0  0  0  0  0  0  0  0  0  0  0
    2.6602   -2.1329    0.0000 C   0  0  0  0  0  0  0  0  0  0  0  0
    4.1564   -2.2405    0.0000 C   0  0  0  0  0  0  0  0  0  0  0  0
    4.9976   -0.9986    0.0000 C   0  0  0  0  0  0  0  0  0  0  0  0
    6.4938   -1.1062    0.0000 O   0  0  0  0  0  0  0  0  0  0  0  0
    7.3350    0.1357    0.0000 C   0  0  0  0  0  0  0  0  0  0  0  0
    8.5503    1.0149    0.0000 C   0  0  0  0  0  0  0  0  0  0  0  0
    8.4120   -0.9085    0.0000 C   0  0  0  0  0  0  0  0  0  0  0  0
    6.6802    1.4852    0.0000 O   0  0  0  0  0  0  0  0  0  0  0  0
    5.1840    1.5928    0.0000 C   0  0  0  0  0  0  0  0  0  0  0  0
    4.3428    0.3509    0.0000 C   0  0  0  0  0  0  0  0  0  0  0  0
    3.6879    1.7004    0.0000 C   0  0  0  0  0  0  0  0  0  0  0  0
    2.8466    0.4585    0.0000 C   0  0  0  0  0  0  0  0  0  0  0  0
    2.1918    1.8080    0.0000 C   0  0  0  0  0  0  0  0  0  0  0  0
    0.6956    1.9156    0.0000 C   0  0  0  0  0  0  0  0  0  0  0  0
   -0.1456    0.6737    0.0000 C   0  0  0  0  0  0  0  0  0  0  0  0
   -0.9869   -0.5682    0.0000 C   0  0  0  0  0  0  0  0  0  0  0  0
   -3.9792   -0.3529    0.0000 C   0  0  0  0  0  0  0  0  0  0  0  0
  1  2  2  0
  2  3  1  0
  4  2  1  6
  4  5  1  0
  5  6  1  0
  6  7  1  0
  7  8  1  1
  8  9  2  0
  8 10  1  0
  7 11  1  0
 11 12  1  0
 12 13  1  0
 13 14  1  6
 13 15  1  0
 15 16  1  0
 16 17  1  0
 17 18  1  0
 18 19  1  0
 19 20  1  1
 19 21  1  0
 21 22  1  0
 23 22  1  6
 23 24  1  0
 24 25  1  0
 25 26  1  0
 25 27  1  0
 25 28  1  0
 28 29  1  0
 29 30  1  0
 30 31  1  1
 30 32  1  0
 32 33  1  0
 33 34  1  0
 34 35  1  0
 35 36  1  1
 15 37  1  0
 37  4  1  0
 37  7  1  0
 35 13  1  0
 35 18  1  0
 32 19  1  0
 30 23  1  0
M  END
>  <identifier>  (476) 
CNP0436844.1

>  <canonical_smiles>  (476) 
C=C(C)[C@@H]1CC[C@]2(C(=O)O)CC[C@]3(C)C(CCC4[C@@]5(C)CC[C@H]6OC(C)(C)OC[C@@]6(C)C5CC[C@]43C)C12

>  <standard_inchi>  (476) 
InChI=1S/C33H52O4/c1-20(2)21-11-16-33(27(34)35)18-17-31(7)22(26(21)33)9-10-24-29(5)14-13-25-30(6,19-36-28(3,4)37-25)23(29)12-15-32(24,31)8/h21-26H,1,9-19H2,2-8H3,(H,34,35)/t21-,22?,23?,24?,25+,26?,29-,30-,31+,32+,33-/m0/s1

>  <standard_inchi_key>  (476) 
QSOINUFDMMDDSM-XPDLCVEWSA-N

>  <name>  (476) 
nan

>  <iupac_name>  (476) 
(2~{R},5~{R},10~{R},14~{R},15~{R},18~{S},21~{R})-21-isopropenyl-2,7,7,10,14,15-hexamethyl-6,8-dioxahexacyclo[12.11.0.0^{2,11}.0^{5,10}.0^{15,23}.0^{18,22}]pentacosane-18-carboxylic acid

>  <annotation_level>  (476) 
5

>  <total_atom_count>  (476) 
89

>  <heavy_atom_count>  (476) 
37

>  <molecular_weight>  (476) 
512.78

>  <exact_molecular_weight>  (476) 
512.38656

>  <molecular_formula>  (476) 
C33H52O4

>  <alogp>  (476) 
7.86

>  <topological_polar_surface_area>  (476) 
55.76

>  <rotatable_bond_count>  (476) 
2

>  <hydrogen_bond_acceptors>  (476) 
3

>  <hydrogen_bond_donors>  (476) 
1

>  <hydrogen_bond_acceptors_lipinski>  (476) 
3

>  <hydrogen_bond_donors_lipinski>  (476) 
1

>  <lipinski_rule_of_five_violations>  (476) 
2

>  <aromatic_rings_count>  (476) 
0

>  <qed_drug_likeliness>  (476) 
0.38

>  <formal_charge>  (476) 
0

>  <fractioncsp3>  (476) 
0.91

>  <number_of_minimal_rings>  (476) 
6

>  <van_der_walls_volume>  (476) 
504.40

>  <contains_sugar>  (476) 
False

>  <contains_ring_sugars>  (476) 
False

>  <contains_linear_sugars>  (476) 
False

>  <murcko_framework>  (476) 
O1COC2CCC3C(CCC4C5CCC6CCCC6C5CCC34)C2C1

>  <np_likeness>  (476) 
2.83

>  <chemical_class>  (476) 
Steroids and steroid derivatives

>  <chemical_sub_class>  (476) 
Hydroxysteroids

>  <chemical_super_class>  (476) 
Lipids and lipid-like molecules

>  <direct_parent_classification>  (476) 
Hydroxysteroids

>  <np_classifier_pathway>  (476) 
Terpenoids

>  <np_classifier_superclass>  (476) 
Triterpenoids

>  <np_classifier_class>  (476) 
Lupane triterpenoids

>  <np_classifier_is_glycoside>  (476) 
False

>  <organisms>  (476) 
Phoradendron vernicosum

>  <collections>  (476) 
BIOFACQUIM|Latin America dataset

>  <dois>  (476) 
10.1021/acs.jnatprod.7b00177

>  <synonyms>  (476) 
3\u0152\u00b1 23-O-isopropylidenyl-3\u0152\u00b1 23-dihydroxylup-20(29)-en-28-oic acid

>  <cas>  (476) 
nan

$$$$

     RDKit          2D

 29 32  0  0  0  0  0  0  0  0999 V2000
   -5.9398    0.6775    0.0000 C   0  0  0  0  0  0  0  0  0  0  0  0
   -5.2907   -0.6748    0.0000 O   0  0  0  0  0  0  0  0  0  0  0  0
   -3.7951   -0.7888    0.0000 C   0  0  0  0  0  0  0  0  0  0  0  0
   -3.1460   -2.1411    0.0000 C   0  0  0  0  0  0  0  0  0  0  0  0
   -1.6504   -2.2552    0.0000 C   0  0  0  0  0  0  0  0  0  0  0  0
   -0.8038   -1.0169    0.0000 C   0  0  0  0  0  0  0  0  0  0  0  0
    0.6919   -1.1309    0.0000 C   0  0  0  0  0  0  0  0  0  0  0  0
    1.3410   -2.4832    0.0000 N   0  0  0  0  0  0  0  0  0  0  0  0
    0.4944   -3.7215    0.0000 O   0  0  0  0  0  0  0  0  0  0  0  0
   -1.0013   -3.6075    0.0000 C   0  0  0  0  0  0  0  0  0  0  0  0
   -1.8479   -4.8457    0.0000 O   0  0  0  0  0  0  0  0  0  0  0  0
    1.5385    0.1073    0.0000 C   0  0  0  0  0  0  0  0  0  0  0  0
    3.0341   -0.0067    0.0000 S   0  0  0  0  0  0  0  0  0  0  0  0
    3.6832   -1.3590    0.0000 C   0  0  0  0  0  0  0  0  0  0  0  0
    5.1789   -1.4730    0.0000 C   0  0  0  0  0  0  0  0  0  0  0  0
    5.8279   -2.8253    0.0000 N   0  0  0  0  0  0  0  0  0  0  0  0
    6.0255   -0.2348    0.0000 O   0  0  0  0  0  0  0  0  0  0  0  0
    0.8894    1.4596    0.0000 C   0  0  0  0  0  0  0  0  0  0  0  0
    1.7360    2.6979    0.0000 C   0  0  0  0  0  0  0  0  0  0  0  0
    3.2316    2.5839    0.0000 O   0  0  0  0  0  0  0  0  0  0  0  0
    4.0782    3.8221    0.0000 C   0  0  0  0  0  0  0  0  0  0  0  0
    1.0869    4.0502    0.0000 C   0  0  0  0  0  0  0  0  0  0  0  0
   -0.4088    4.1642    0.0000 C   0  0  0  0  0  0  0  0  0  0  0  0
   -1.2553    2.9259    0.0000 C   0  0  0  0  0  0  0  0  0  0  0  0
   -0.6063    1.5737    0.0000 C   0  0  0  0  0  0  0  0  0  0  0  0
   -1.4528    0.3354    0.0000 C   0  0  0  0  0  0  0  0  0  0  0  0
   -2.9485    0.4494    0.0000 C   0  0  0  0  0  0  0  0  0  0  0  0
   -3.5976    1.8017    0.0000 O   0  0  0  0  0  0  0  0  0  0  0  0
   -5.0932    1.9157    0.0000 C   0  0  0  0  0  0  0  0  0  0  0  0
  1  2  1  0
  2  3  1  0
  3  4  2  0
  4  5  1  0
  5  6  2  0
  6  7  1  0
  7  8  2  0
  8  9  1  0
  9 10  1  0
 10 11  2  0
  7 12  1  0
 12 13  1  6
 13 14  1  0
 14 15  1  0
 15 16  1  0
 15 17  2  0
 12 18  1  0
 18 19  2  0
 19 20  1  0
 20 21  1  0
 19 22  1  0
 22 23  2  0
 23 24  1  0
 24 25  2  0
 25 26  1  0
 26 27  2  0
 27 28  1  0
 28 29  1  0
 27  3  1  0
 10  5  1  0
 25 18  1  0
 26  6  1  0
M  END
>  <identifier>  (477) 
CNP0436843.1

>  <canonical_smiles>  (477) 
COC1=CC2=C3C(=NOC2=O)[C@@H](SCC(N)=O)C2=C(OC)C=CC=C2C3=C1OC

>  <standard_inchi>  (477) 
InChI=1S/C20H18N2O6S/c1-25-11-6-4-5-9-14(11)19(29-8-13(21)23)17-15-10(20(24)28-22-17)7-12(26-2)18(27-3)16(9)15/h4-7,19H,8H2,1-3H3,(H2,21,23)/t19-/m0/s1

>  <standard_inchi_key>  (477) 
QJKBEBMIXVPUGJ-IBGZPJMESA-N

>  <name>  (477) 
2-[[(8S)-6,15,16-trimethoxy-12-oxo-11-oxa-10-azatetracyclo[7.7.1.02,7.013,17]heptadeca-1(17),2(7),3,5,9,13,15-heptaen-8-yl]sulfanyl]acetamide

>  <iupac_name>  (477) 
2-[[(8~{S})-6,15,16-trimethoxy-12-oxo-11-oxa-10-azatetracyclo[7.7.1.0^{2,7}.0^{13,17}]heptadeca-1(16),2,4,6,9,13(17),14-heptaen-8-yl]sulfanyl]acetamide

>  <annotation_level>  (477) 
5

>  <total_atom_count>  (477) 
47

>  <heavy_atom_count>  (477) 
29

>  <molecular_weight>  (477) 
414.44

>  <exact_molecular_weight>  (477) 
414.08856

>  <molecular_formula>  (477) 
C20H18N2O6S

>  <alogp>  (477) 
2.50

>  <topological_polar_surface_area>  (477) 
113.88

>  <rotatable_bond_count>  (477) 
6

>  <hydrogen_bond_acceptors>  (477) 
8

>  <hydrogen_bond_donors>  (477) 
1

>  <hydrogen_bond_acceptors_lipinski>  (477) 
8

>  <hydrogen_bond_donors_lipinski>  (477) 
1

>  <lipinski_rule_of_five_violations>  (477) 
0

>  <aromatic_rings_count>  (477) 
3

>  <qed_drug_likeliness>  (477) 
0.65

>  <formal_charge>  (477) 
0

>  <fractioncsp3>  (477) 
0.25

>  <number_of_minimal_rings>  (477) 
4

>  <van_der_walls_volume>  (477) 
340.79

>  <contains_sugar>  (477) 
False

>  <contains_ring_sugars>  (477) 
False

>  <contains_linear_sugars>  (477) 
False

>  <murcko_framework>  (477) 
N=1OCc2cccc3-c4ccccc4CC1c32

>  <np_likeness>  (477) 
0.17

>  <chemical_class>  (477) 
Phenanthrenes and derivatives

>  <chemical_sub_class>  (477) 
Phenanthrenes and derivatives

>  <chemical_super_class>  (477) 
Benzenoids

>  <direct_parent_classification>  (477) 
Phenanthrenes and derivatives

>  <np_classifier_pathway>  (477) 
Alkaloids

>  <np_classifier_superclass>  (477) 
nan

>  <np_classifier_class>  (477) 
nan

>  <np_classifier_is_glycoside>  (477) 
False

>  <organisms>  (477) 
Aristolochia orbicularis

>  <collections>  (477) 
BIOFACQUIM|Latin America dataset|NPASS

>  <dois>  (477) 
10.1021/acs.jnatprod.7b00226

>  <synonyms>  (477) 
CHEMBL4176885|Aristoloxazine A

>  <cas>  (477) 
nan

$$$$

     RDKit          2D

 22 26  0  0  0  0  0  0  0  0999 V2000
    5.8969    0.8629    0.0000 C   0  0  0  0  0  0  0  0  0  0  0  0
    4.4306    1.1792    0.0000 O   0  0  0  0  0  0  0  0  0  0  0  0
    3.4236    0.0674    0.0000 C   0  0  0  0  0  0  0  0  0  0  0  0
    3.8828   -1.3605    0.0000 C   0  0  0  0  0  0  0  0  0  0  0  0
    2.8758   -2.4722    0.0000 C   0  0  0  0  0  0  0  0  0  0  0  0
    1.4095   -2.1560    0.0000 C   0  0  0  0  0  0  0  0  0  0  0  0
    0.9503   -0.7280    0.0000 C   0  0  0  0  0  0  0  0  0  0  0  0
    1.9573    0.3837    0.0000 C   0  0  0  0  0  0  0  0  0  0  0  0
    1.4980    1.8117    0.0000 C   0  0  0  0  0  0  0  0  0  0  0  0
    0.0317    2.1279    0.0000 C   0  0  0  0  0  0  0  0  0  0  0  0
   -0.8463    3.3440    0.0000 N   0  0  0  0  0  0  0  0  0  0  0  0
   -2.2743    2.8848    0.0000 C   0  0  0  0  0  0  0  0  0  0  0  0
   -3.4852    3.7701    0.0000 O   0  0  0  0  0  0  0  0  0  0  0  0
   -2.4416    1.3324    0.0000 C   0  0  0  0  0  0  0  0  0  0  0  0
   -0.9753    1.0162    0.0000 C   0  0  0  0  0  0  0  0  0  0  0  0
   -0.5160   -0.4118    0.0000 C   0  0  0  0  0  0  0  0  0  0  0  0
   -1.5230   -1.5235    0.0000 C   0  0  0  0  0  0  0  0  0  0  0  0
   -1.3707   -3.0158    0.0000 O   0  0  0  0  0  0  0  0  0  0  0  0
   -2.7428   -3.6218    0.0000 C   0  0  0  0  0  0  0  0  0  0  0  0
   -3.7432   -2.5041    0.0000 O   0  0  0  0  0  0  0  0  0  0  0  0
   -2.9893   -1.2073    0.0000 C   0  0  0  0  0  0  0  0  0  0  0  0
   -3.4486    0.2207    0.0000 C   0  0  0  0  0  0  0  0  0  0  0  0
  1  2  1  0
  2  3  1  0
  3  4  2  0
  4  5  1  0
  5  6  2  0
  6  7  1  0
  7  8  2  0
  8  9  1  0
  9 10  2  0
 10 11  1  0
 11 12  1  0
 12 13  2  0
 12 14  1  0
 14 15  1  0
 15 16  2  0
 16 17  1  0
 17 18  1  0
 18 19  1  0
 19 20  1  0
 20 21  1  0
 21 22  1  0
  8  3  1  0
 15 10  1  0
 21 17  2  0
 16  7  1  0
 22 14  2  0
M  END
>  <identifier>  (478) 
CNP0253983.0

>  <canonical_smiles>  (478) 
COC1=CC=CC2=C1C=C1NC(=O)C3=C1C2=C1OCOC1=C3

>  <standard_inchi>  (478) 
InChI=1S/C17H11NO4/c1-20-12-4-2-3-8-9(12)5-11-14-10(17(19)18-11)6-13-16(15(8)14)22-7-21-13/h2-6H,7H2,1H3,(H,18,19)

>  <standard_inchi_key>  (478) 
MXOKGWUJNGEKBH-UHFFFAOYSA-N

>  <name>  (478) 
Aristololactam

>  <iupac_name>  (478) 
14-methoxy-3,5-dioxa-10-azapentacyclo[9.7.1.0^{2,6}.0^{8,19}.0^{13,18}]nonadeca-1,6,8(19),11,13(18),14,16-heptaen-9-one

>  <annotation_level>  (478) 
5

>  <total_atom_count>  (478) 
33

>  <heavy_atom_count>  (478) 
22

>  <molecular_weight>  (478) 
293.28

>  <exact_molecular_weight>  (478) 
293.06881

>  <molecular_formula>  (478) 
C17H11NO4

>  <alogp>  (478) 
3.30

>  <topological_polar_surface_area>  (478) 
56.79

>  <rotatable_bond_count>  (478) 
1

>  <hydrogen_bond_acceptors>  (478) 
4

>  <hydrogen_bond_donors>  (478) 
1

>  <hydrogen_bond_acceptors_lipinski>  (478) 
4

>  <hydrogen_bond_donors_lipinski>  (478) 
1

>  <lipinski_rule_of_five_violations>  (478) 
0

>  <aromatic_rings_count>  (478) 
3

>  <qed_drug_likeliness>  (478) 
0.70

>  <formal_charge>  (478) 
0

>  <fractioncsp3>  (478) 
0.12

>  <number_of_minimal_rings>  (478) 
5

>  <van_der_walls_volume>  (478) 
238.08

>  <contains_sugar>  (478) 
False

>  <contains_ring_sugars>  (478) 
False

>  <contains_linear_sugars>  (478) 
False

>  <murcko_framework>  (478) 
O1c2cc3c4c(cc5ccccc5c4c2OC1)NC3

>  <np_likeness>  (478) 
1.18

>  <chemical_class>  (478) 
Aristolactams

>  <chemical_sub_class>  (478) 
Aristolactams

>  <chemical_super_class>  (478) 
Alkaloids and derivatives

>  <direct_parent_classification>  (478) 
Aristolactams

>  <np_classifier_pathway>  (478) 
Alkaloids

>  <np_classifier_superclass>  (478) 
Tyrosine alkaloids

>  <np_classifier_class>  (478) 
Aporphine alkaloids

>  <np_classifier_is_glycoside>  (478) 
False

>  <organisms>  (478) 
Annona cacans|Aristolochia auricularia|Aristolochia chilensis|Aristolochia heterophylla Hemsl|Aristolochia orbicularis|Aristolochia ponticum|Aristolochia tubiflora|Nerium oleander

>  <collections>  (478) 
BIOFACQUIM|GNPS (Global Natural Products Social Molecular Networking)|HIM (Herbal Ingredients in-vivo Metabolism database)|KNApSaCK|Latin America dataset|Phyto4Health|Super Natural II|TCMDB-Taiwan (Traditional Chinese Medicine database)|TCMID (Traditional Chinese Medicine Integrated Database)|TIPdb (database of Taiwan indigenous plants)|UNPD (Universal Natural Products Database)|ZINC NP

>  <dois>  (478) 
10.1021/acs.jnatprod.7b00226

>  <synonyms>  (478) 
Aristolactam I|13395-02-3|Aristololactum|Aristololactam; Aristolactam|3G8CFM4T9A|CHEMBL479127|NSC-87406|8-Methoxybenzof-1|3-benzodioxolo6|5|4-cdindol-5(6H)-one|Benzo(f)-1|3-benzodioxolo(6|5|4-cd)indol-5(6H)-one| 8-methoxy-|14-methoxy-3|5-dioxa-10-azapentacyclo9.7.1.02|6.08|19.013|18nonadeca-1(18)|2(6)|7|11(19)|12|14|16-heptaen-9-one|NSC 87406|CCRIS 1545|BRN 0307971|UNII-3G8CFM4T9A|4-27-00-06628 (Beilstein Handbook Reference)|DTXSID60158430|HY-N2013|BDBM50306869|MFCD00797313|AKOS028111118|1ST40389|AC-34507|MS-24190|CS-0018333|Q-100130|8-methoxy-1|3dioxolo4'|5':4|5benzo1|2|3-cdbenzofindol-5(6H)-one|8-Methoxy-6H-benzof1|3dioxolo4''|5'':4|5benzo1|2|3-cdindol-5-one|14-METHOXY-3|5-DIOXA-10-AZAPENTACYCLO9.7.1.0(2)|?.0?|(1)?.0(1)(3)|(1)?NONADECA-1(19)|2(6)|7|11|13(18)|14|16-HEPTAEN-9-ONE

>  <cas>  (478) 
13395-02-3

$$$$

     RDKit          2D

 35 39  0  0  0  0  0  0  0  0999 V2000
    5.3658   -3.5071    0.0000 C   0  0  0  0  0  0  0  0  0  0  0  0
    4.1570   -2.6188    0.0000 C   0  0  0  0  0  0  0  0  0  0  0  0
    2.7834   -3.2215    0.0000 C   0  0  0  0  0  0  0  0  0  0  0  0
    2.6185   -4.7124    0.0000 O   0  0  0  0  0  0  0  0  0  0  0  0
    4.3219   -1.1279    0.0000 C   0  0  0  0  0  0  0  0  0  0  0  0
    5.6250   -0.3850    0.0000 C   0  0  0  0  0  0  0  0  0  0  0  0
    5.3211    1.0839    0.0000 C   0  0  0  0  0  0  0  0  0  0  0  0
    3.8302    1.2488    0.0000 C   0  0  0  0  0  0  0  0  0  0  0  0
    4.5873    2.5438    0.0000 C   0  0  0  0  0  0  0  0  0  0  0  0
    3.8443    3.8469    0.0000 O   0  0  0  0  0  0  0  0  0  0  0  0
    6.0872    2.5356    0.0000 O   0  0  0  0  0  0  0  0  0  0  0  0
    2.9552    2.4671    0.0000 C   0  0  0  0  0  0  0  0  0  0  0  0
    1.4625    2.3184    0.0000 C   0  0  0  0  0  0  0  0  0  0  0  0
    0.8450    0.9514    0.0000 C   0  0  0  0  0  0  0  0  0  0  0  0
   -0.0301    2.1697    0.0000 C   0  0  0  0  0  0  0  0  0  0  0  0
    1.7201   -0.2668    0.0000 C   0  0  0  0  0  0  0  0  0  0  0  0
    1.1025   -1.6338    0.0000 C   0  0  0  0  0  0  0  0  0  0  0  0
   -0.3901   -1.7825    0.0000 C   0  0  0  0  0  0  0  0  0  0  0  0
   -1.2651   -0.5642    0.0000 C   0  0  0  0  0  0  0  0  0  0  0  0
   -2.7578   -0.7129    0.0000 C   0  0  0  0  0  0  0  0  0  0  0  0
   -1.8827   -1.9312    0.0000 C   0  0  0  0  0  0  0  0  0  0  0  0
   -3.3753   -2.0799    0.0000 C   0  0  0  0  0  0  0  0  0  0  0  0
   -4.8679   -2.2286    0.0000 C   0  0  0  0  0  0  0  0  0  0  0  0
   -5.7430   -1.0103    0.0000 C   0  0  0  0  0  0  0  0  0  0  0  0
   -7.2356   -1.1590    0.0000 O   0  0  0  0  0  0  0  0  0  0  0  0
   -5.1254    0.3567    0.0000 C   0  0  0  0  0  0  0  0  0  0  0  0
   -5.0127    1.8524    0.0000 C   0  0  0  0  0  0  0  0  0  0  0  0
   -6.5789    0.7275    0.0000 C   0  0  0  0  0  0  0  0  0  0  0  0
   -6.9845    2.1716    0.0000 O   0  0  0  0  0  0  0  0  0  0  0  0
   -3.6328    0.5054    0.0000 C   0  0  0  0  0  0  0  0  0  0  0  0
   -3.0153    1.8724    0.0000 C   0  0  0  0  0  0  0  0  0  0  0  0
   -1.5227    2.0211    0.0000 C   0  0  0  0  0  0  0  0  0  0  0  0
   -0.6476    0.8028    0.0000 C   0  0  0  0  0  0  0  0  0  0  0  0
    0.2275   -0.4155    0.0000 C   0  0  0  0  0  0  0  0  0  0  0  0
    3.2127   -0.1182    0.0000 C   0  0  0  0  0  0  0  0  0  0  0  0
  1  2  2  0
  2  3  1  0
  3  4  2  0
  5  2  1  1
  5  6  1  0
  6  7  1  0
  7  8  1  0
  8  9  1  6
  9 10  2  0
  9 11  1  0
  8 12  1  0
 12 13  1  0
 13 14  1  0
 14 15  1  1
 14 16  1  0
 16 17  1  0
 17 18  1  0
 18 19  1  0
 19 20  1  0
 20 21  1  6
 20 22  1  0
 22 23  1  0
 23 24  1  0
 24 25  1  1
 24 26  1  0
 26 27  1  6
 26 28  1  0
 28 29  1  0
 26 30  1  0
 30 31  1  0
 31 32  1  0
 32 33  1  0
 33 34  1  6
 16 35  1  0
 35  5  1  0
 35  8  1  0
 33 14  1  0
 33 19  1  0
 30 20  1  0
M  END
>  <identifier>  (479) 
CNP0436842.1

>  <canonical_smiles>  (479) 
C=C(C=O)[C@@H]1CC[C@]2(C(=O)O)CC[C@]3(C)C(CCC4[C@@]5(C)CC[C@@H](O)[C@@](C)(CO)C5CC[C@]43C)C12

>  <standard_inchi>  (479) 
InChI=1S/C30H46O5/c1-18(16-31)19-8-13-30(25(34)35)15-14-28(4)20(24(19)30)6-7-22-26(2)11-10-23(33)27(3,17-32)21(26)9-12-29(22,28)5/h16,19-24,32-33H,1,6-15,17H2,2-5H3,(H,34,35)/t19-,20?,21?,22?,23+,24?,26-,27-,28+,29+,30-/m0/s1

>  <standard_inchi_key>  (479) 
QFMLBJPCQONEAF-IQSFLHLTSA-N

>  <name>  (479) 
nan

>  <iupac_name>  (479) 
(1~{R},3~{a}~{S},5~{a}~{R},5~{b}~{R},8~{R},9~{R},11~{a}~{R})-1-(1-formylvinyl)-9-hydroxy-8-(hydroxymethyl)-5~{a},5~{b},8,11~{a}-tetramethyl-1,2,3,4,5,6,7,7~{a},9,10,11,11~{b},12,13,13~{a},13~{b}-hexadecahydrocyclopenta[a]chrysene-3~{a}-carboxylic acid

>  <annotation_level>  (479) 
5

>  <total_atom_count>  (479) 
81

>  <heavy_atom_count>  (479) 
35

>  <molecular_weight>  (479) 
486.69

>  <exact_molecular_weight>  (479) 
486.33452

>  <molecular_formula>  (479) 
C30H46O5

>  <alogp>  (479) 
5.24

>  <topological_polar_surface_area>  (479) 
94.83

>  <rotatable_bond_count>  (479) 
4

>  <hydrogen_bond_acceptors>  (479) 
4

>  <hydrogen_bond_donors>  (479) 
3

>  <hydrogen_bond_acceptors_lipinski>  (479) 
4

>  <hydrogen_bond_donors_lipinski>  (479) 
3

>  <lipinski_rule_of_five_violations>  (479) 
1

>  <aromatic_rings_count>  (479) 
0

>  <qed_drug_likeliness>  (479) 
0.37

>  <formal_charge>  (479) 
0

>  <fractioncsp3>  (479) 
0.87

>  <number_of_minimal_rings>  (479) 
5

>  <van_der_walls_volume>  (479) 
469.22

>  <contains_sugar>  (479) 
False

>  <contains_ring_sugars>  (479) 
False

>  <contains_linear_sugars>  (479) 
False

>  <murcko_framework>  (479) 
C1CCC2C(C1)CCC3C2CCC4C5CCCC5CCC43

>  <np_likeness>  (479) 
3.11

>  <chemical_class>  (479) 
Steroids and steroid derivatives

>  <chemical_sub_class>  (479) 
Hydroxysteroids

>  <chemical_super_class>  (479) 
Lipids and lipid-like molecules

>  <direct_parent_classification>  (479) 
Hydroxysteroids

>  <np_classifier_pathway>  (479) 
Terpenoids

>  <np_classifier_superclass>  (479) 
Triterpenoids

>  <np_classifier_class>  (479) 
Lupane triterpenoids

>  <np_classifier_is_glycoside>  (479) 
False

>  <organisms>  (479) 
Phoradendron vernicosum

>  <collections>  (479) 
BIOFACQUIM|Latin America dataset

>  <dois>  (479) 
10.1021/acs.jnatprod.7b00177

>  <synonyms>  (479) 
3\u0152\u00b1 23-dihydroxy-30-oxolup-20(29)-en-28-oic acid

>  <cas>  (479) 
nan

$$$$

     RDKit          2D

 25 28  0  0  0  0  0  0  0  0999 V2000
   -4.7930    2.2567    0.0000 C   0  0  0  0  0  0  0  0  0  0  0  0
   -4.6870    0.7605    0.0000 O   0  0  0  0  0  0  0  0  0  0  0  0
   -3.3382    0.1041    0.0000 C   0  0  0  0  0  0  0  0  0  0  0  0
   -3.2322   -1.3921    0.0000 C   0  0  0  0  0  0  0  0  0  0  0  0
   -1.8834   -2.0485    0.0000 C   0  0  0  0  0  0  0  0  0  0  0  0
   -0.6406   -1.2086    0.0000 C   0  0  0  0  0  0  0  0  0  0  0  0
    0.7082   -1.8649    0.0000 C   0  0  0  0  0  0  0  0  0  0  0  0
    1.9510   -1.0250    0.0000 C   0  0  0  0  0  0  0  0  0  0  0  0
    3.2997   -1.6813    0.0000 O   0  0  0  0  0  0  0  0  0  0  0  0
    3.4057   -3.1776    0.0000 C   0  0  0  0  0  0  0  0  0  0  0  0
    1.8450    0.4713    0.0000 C   0  0  0  0  0  0  0  0  0  0  0  0
    3.0878    1.3112    0.0000 C   0  0  0  0  0  0  0  0  0  0  0  0
    4.4366    0.6548    0.0000 O   0  0  0  0  0  0  0  0  0  0  0  0
    5.6794    1.4948    0.0000 C   0  0  0  0  0  0  0  0  0  0  0  0
    2.9818    2.8074    0.0000 C   0  0  0  0  0  0  0  0  0  0  0  0
    1.6330    3.4638    0.0000 C   0  0  0  0  0  0  0  0  0  0  0  0
    0.3902    2.6239    0.0000 C   0  0  0  0  0  0  0  0  0  0  0  0
    0.4962    1.1276    0.0000 C   0  0  0  0  0  0  0  0  0  0  0  0
   -0.7466    0.2877    0.0000 C   0  0  0  0  0  0  0  0  0  0  0  0
   -2.0954    0.9440    0.0000 C   0  0  0  0  0  0  0  0  0  0  0  0
   -2.2014    2.4403    0.0000 O   0  0  0  0  0  0  0  0  0  0  0  0
   -3.5502    3.0966    0.0000 C   0  0  0  0  0  0  0  0  0  0  0  0
    0.3466   -3.3207    0.0000 N   0  0  0  0  0  0  0  0  0  0  0  0
   -1.1497   -3.4267    0.0000 C   0  0  0  0  0  0  0  0  0  0  0  0
   -1.9434   -4.6994    0.0000 O   0  0  0  0  0  0  0  0  0  0  0  0
  1  2  1  0
  2  3  1  0
  3  4  2  0
  4  5  1  0
  5  6  2  0
  6  7  1  0
  7  8  2  0
  8  9  1  0
  9 10  1  0
  8 11  1  0
 11 12  2  0
 12 13  1  0
 13 14  1  0
 12 15  1  0
 15 16  2  0
 16 17  1  0
 17 18  2  0
 18 19  1  0
 19 20  2  0
 20 21  1  0
 21 22  1  0
  7 23  1  0
 23 24  1  0
 24 25  2  0
 20  3  1  0
 24  5  1  0
 19  6  1  0
 18 11  1  0
M  END
>  <identifier>  (480) 
CNP0436846.0

>  <canonical_smiles>  (480) 
COC1=CC2=C3C(=C(OC)C4=C(OC)C=CC=C4C3=C1OC)NC2=O

>  <standard_inchi>  (480) 
InChI=1S/C19H17NO5/c1-22-11-7-5-6-9-13(11)18(25-4)16-14-10(19(21)20-16)8-12(23-2)17(24-3)15(9)14/h5-8H,1-4H3,(H,20,21)

>  <standard_inchi_key>  (480) 
UGTKGINYNDOEMB-UHFFFAOYSA-N

>  <name>  (480) 
nan

>  <iupac_name>  (480) 
6,8,14,15-tetramethoxy-10-azatetracyclo[7.6.1.0^{2,7}.0^{12,16}]hexadeca-1(15),2,4,6,8,12(16),13-heptaen-11-one

>  <annotation_level>  (480) 
5

>  <total_atom_count>  (480) 
42

>  <heavy_atom_count>  (480) 
25

>  <molecular_weight>  (480) 
339.35

>  <exact_molecular_weight>  (480) 
339.11067

>  <molecular_formula>  (480) 
C19H17NO5

>  <alogp>  (480) 
3.59

>  <topological_polar_surface_area>  (480) 
66.02

>  <rotatable_bond_count>  (480) 
4

>  <hydrogen_bond_acceptors>  (480) 
5

>  <hydrogen_bond_donors>  (480) 
1

>  <hydrogen_bond_acceptors_lipinski>  (480) 
5

>  <hydrogen_bond_donors_lipinski>  (480) 
1

>  <lipinski_rule_of_five_violations>  (480) 
0

>  <aromatic_rings_count>  (480) 
3

>  <qed_drug_likeliness>  (480) 
0.74

>  <formal_charge>  (480) 
0

>  <fractioncsp3>  (480) 
0.21

>  <number_of_minimal_rings>  (480) 
4

>  <van_der_walls_volume>  (480) 
289.63

>  <contains_sugar>  (480) 
False

>  <contains_ring_sugars>  (480) 
False

>  <contains_linear_sugars>  (480) 
False

>  <murcko_framework>  (480) 
c1ccc2c(c1)cc3NCc4cccc2c34

>  <np_likeness>  (480) 
0.88

>  <chemical_class>  (480) 
Aristolactams

>  <chemical_sub_class>  (480) 
Aristolactams

>  <chemical_super_class>  (480) 
Alkaloids and derivatives

>  <direct_parent_classification>  (480) 
Aristolactams

>  <np_classifier_pathway>  (480) 
Alkaloids

>  <np_classifier_superclass>  (480) 
Tyrosine alkaloids

>  <np_classifier_class>  (480) 
Aporphine alkaloids

>  <np_classifier_is_glycoside>  (480) 
False

>  <organisms>  (480) 
Aristolochia orbicularis

>  <collections>  (480) 
BIOFACQUIM|Latin America dataset

>  <dois>  (480) 
10.1021/acs.jnatprod.7b00226

>  <synonyms>  (480) 
7-methoxytaliscanine

>  <cas>  (480) 
nan

$$$$

     RDKit          2D

 38 42  0  0  0  0  0  0  0  0999 V2000
   -8.7541    3.2746    0.0000 C   0  0  0  0  0  0  0  0  0  0  0  0
   -9.1345    1.8237    0.0000 O   0  0  0  0  0  0  0  0  0  0  0  0
   -8.0682    0.7688    0.0000 C   0  0  0  0  0  0  0  0  0  0  0  0
   -6.6214    1.1648    0.0000 C   0  0  0  0  0  0  0  0  0  0  0  0
   -5.5550    0.1098    0.0000 C   0  0  0  0  0  0  0  0  0  0  0  0
   -4.1083    0.5058    0.0000 C   0  0  0  0  0  0  0  0  0  0  0  0
   -3.0419   -0.5491    0.0000 C   0  0  0  0  0  0  0  0  0  0  0  0
   -1.5951   -0.1531    0.0000 C   0  0  0  0  0  0  0  0  0  0  0  0
   -1.2147    1.2979    0.0000 O   0  0  0  0  0  0  0  0  0  0  0  0
   -0.5288   -1.2080    0.0000 S   0  0  0  0  0  0  0  0  0  0  0  0
    0.9180   -0.8120    0.0000 C   0  0  0  0  0  0  0  0  0  0  0  0
    1.9844   -1.8669    0.0000 C   0  0  0  0  0  0  0  0  0  0  0  0
    1.6039   -3.3179    0.0000 C   0  0  0  0  0  0  0  0  0  0  0  0
    0.1571   -3.7139    0.0000 O   0  0  0  0  0  0  0  0  0  0  0  0
   -0.2233   -5.1649    0.0000 C   0  0  0  0  0  0  0  0  0  0  0  0
    2.6703   -4.3728    0.0000 C   0  0  0  0  0  0  0  0  0  0  0  0
    4.1171   -3.9768    0.0000 C   0  0  0  0  0  0  0  0  0  0  0  0
    4.4975   -2.5259    0.0000 C   0  0  0  0  0  0  0  0  0  0  0  0
    3.4311   -1.4709    0.0000 C   0  0  0  0  0  0  0  0  0  0  0  0
    3.8116   -0.0200    0.0000 C   0  0  0  0  0  0  0  0  0  0  0  0
    5.2583    0.3760    0.0000 C   0  0  0  0  0  0  0  0  0  0  0  0
    6.3247   -0.6789    0.0000 O   0  0  0  0  0  0  0  0  0  0  0  0
    7.7715   -0.2829    0.0000 C   0  0  0  0  0  0  0  0  0  0  0  0
    5.6388    1.8270    0.0000 C   0  0  0  0  0  0  0  0  0  0  0  0
    7.0855    2.2230    0.0000 O   0  0  0  0  0  0  0  0  0  0  0  0
    8.1519    1.1681    0.0000 C   0  0  0  0  0  0  0  0  0  0  0  0
    4.5724    2.8819    0.0000 C   0  0  0  0  0  0  0  0  0  0  0  0
    3.1256    2.4859    0.0000 C   0  0  0  0  0  0  0  0  0  0  0  0
    2.7452    1.0350    0.0000 C   0  0  0  0  0  0  0  0  0  0  0  0
    1.2984    0.6390    0.0000 C   0  0  0  0  0  0  0  0  0  0  0  0
    0.2321    1.6939    0.0000 N   0  0  0  0  0  0  0  0  0  0  0  0
    0.6125    3.1448    0.0000 O   0  0  0  0  0  0  0  0  0  0  0  0
    2.0593    3.5409    0.0000 C   0  0  0  0  0  0  0  0  0  0  0  0
    2.4397    4.9918    0.0000 O   0  0  0  0  0  0  0  0  0  0  0  0
   -5.9355   -1.3411    0.0000 C   0  0  0  0  0  0  0  0  0  0  0  0
   -7.3822   -1.7371    0.0000 C   0  0  0  0  0  0  0  0  0  0  0  0
   -8.4486   -0.6822    0.0000 C   0  0  0  0  0  0  0  0  0  0  0  0
   -9.8954   -1.0782    0.0000 O   0  0  0  0  0  0  0  0  0  0  0  0
  1  2  1  0
  2  3  1  0
  3  4  2  0
  4  5  1  0
  5  6  1  0
  6  7  2  0
  7  8  1  0
  8  9  2  0
  8 10  1  0
 11 10  1  1
 11 12  1  0
 12 13  2  0
 13 14  1  0
 14 15  1  0
 13 16  1  0
 16 17  2  0
 17 18  1  0
 18 19  2  0
 19 20  1  0
 20 21  2  0
 21 22  1  0
 22 23  1  0
 21 24  1  0
 24 25  1  0
 25 26  1  0
 24 27  2  0
 27 28  1  0
 28 29  2  0
 29 30  1  0
 30 31  2  0
 31 32  1  0
 32 33  1  0
 33 34  2  0
  5 35  2  0
 35 36  1  0
 36 37  2  0
 37 38  1  0
 37  3  1  0
 30 11  1  0
 19 12  1  0
 29 20  1  0
 33 28  1  0
M  END
>  <identifier>  (481) 
CNP0436821.1

>  <canonical_smiles>  (481) 
COC1=CC(/C=C/C(=O)S[C@@H]2C3=C(OC)C=CC=C3C3=C(OC)C(OC)=CC4=C3C2=NOC4=O)=CC=C1O

>  <standard_inchi>  (481) 
InChI=1S/C28H23NO8S/c1-33-18-7-5-6-15-22(18)27(38-21(31)11-9-14-8-10-17(30)19(12-14)34-2)25-23-16(28(32)37-29-25)13-20(35-3)26(36-4)24(15)23/h5-13,27,30H,1-4H3/b11-9+/t27-/m1/s1

>  <standard_inchi_key>  (481) 
CBXCJVROTPLERS-KFVWQZTJSA-N

>  <name>  (481) 
nan

>  <iupac_name>  (481) 
~{S}-[(8~{R})-6,15,16-trimethoxy-12-oxo-11-oxa-10-azatetracyclo[7.7.1.0^{2,7}.0^{13,17}]heptadeca-1(16),2,4,6,9,13(17),14-heptaen-8-yl] (~{E})-3-(4-hydroxy-3-methoxy-phenyl)prop-2-enethioate

>  <annotation_level>  (481) 
5

>  <total_atom_count>  (481) 
61

>  <heavy_atom_count>  (481) 
38

>  <molecular_weight>  (481) 
533.56

>  <exact_molecular_weight>  (481) 
533.11444

>  <molecular_formula>  (481) 
C28H23NO8S

>  <alogp>  (481) 
4.97

>  <topological_polar_surface_area>  (481) 
117.32

>  <rotatable_bond_count>  (481) 
7

>  <hydrogen_bond_acceptors>  (481) 
10

>  <hydrogen_bond_donors>  (481) 
1

>  <hydrogen_bond_acceptors_lipinski>  (481) 
10

>  <hydrogen_bond_donors_lipinski>  (481) 
1

>  <lipinski_rule_of_five_violations>  (481) 
1

>  <aromatic_rings_count>  (481) 
4

>  <qed_drug_likeliness>  (481) 
0.33

>  <formal_charge>  (481) 
0

>  <fractioncsp3>  (481) 
0.18

>  <number_of_minimal_rings>  (481) 
5

>  <van_der_walls_volume>  (481) 
443.16

>  <contains_sugar>  (481) 
False

>  <contains_ring_sugars>  (481) 
False

>  <contains_linear_sugars>  (481) 
False

>  <murcko_framework>  (481) 
N=1OCc2cccc3-c4ccccc4C(SCC=Cc5ccccc5)C1c32

>  <np_likeness>  (481) 
0.53

>  <chemical_class>  (481) 
Phenanthrenes and derivatives

>  <chemical_sub_class>  (481) 
Phenanthrenes and derivatives

>  <chemical_super_class>  (481) 
Benzenoids

>  <direct_parent_classification>  (481) 
Phenanthrenes and derivatives

>  <np_classifier_pathway>  (481) 
nan

>  <np_classifier_superclass>  (481) 
nan

>  <np_classifier_class>  (481) 
nan

>  <np_classifier_is_glycoside>  (481) 
False

>  <organisms>  (481) 
Aristolochia orbicularis

>  <collections>  (481) 
BIOFACQUIM|Latin America dataset

>  <dois>  (481) 
10.1021/acs.jnatprod.7b00226

>  <synonyms>  (481) 
Aristoloxazine B

>  <cas>  (481) 
nan

$$$$

     RDKit          2D

 18 18  0  0  0  0  0  0  0  0999 V2000
    0.4866   -4.4328    0.0000 C   0  0  0  0  0  0  0  0  0  0  0  0
    0.3073   -2.9436    0.0000 C   0  0  0  0  0  0  0  0  0  0  0  0
    1.6857   -2.3520    0.0000 C   0  0  0  0  0  0  0  0  0  0  0  0
    2.5254   -1.1090    0.0000 C   0  0  0  0  0  0  0  0  0  0  0  0
    2.5598    0.3906    0.0000 C   0  0  0  0  0  0  0  0  0  0  0  0
    3.5138    1.5481    0.0000 C   0  0  0  0  0  0  0  0  0  0  0  0
    3.9656   -0.1324    0.0000 C   0  0  0  0  0  0  0  0  0  0  0  0
    1.7780    1.6708    0.0000 C   0  0  0  0  0  0  0  0  0  0  0  0
    2.7860    2.7815    0.0000 O   0  0  0  0  0  0  0  0  0  0  0  0
    0.4282    2.3250    0.0000 C   0  0  0  0  0  0  0  0  0  0  0  0
   -1.0610    2.1457    0.0000 C   0  0  0  0  0  0  0  0  0  0  0  0
   -2.2169    1.1896    0.0000 C   0  0  0  0  0  0  0  0  0  0  0  0
   -3.7165    1.1527    0.0000 C   0  0  0  0  0  0  0  0  0  0  0  0
   -2.7423    2.5946    0.0000 O   0  0  0  0  0  0  0  0  0  0  0  0
   -2.6724   -0.2395    0.0000 C   0  0  0  0  0  0  0  0  0  0  0  0
   -4.1720   -0.2051    0.0000 O   0  0  0  0  0  0  0  0  0  0  0  0
   -2.2830   -1.6881    0.0000 C   0  0  0  0  0  0  0  0  0  0  0  0
   -1.1722   -2.6961    0.0000 C   0  0  0  0  0  0  0  0  0  0  0  0
  2  1  1  1
  2  3  1  0
  3  4  2  0
  4  5  1  0
  5  6  1  0
  5  7  1  0
  5  8  1  0
  8  9  1  6
  8 10  1  0
 10 11  1  0
 11 12  1  0
 12 13  1  6
 12 14  1  0
 12 15  1  0
 15 16  1  6
 15 17  1  0
 17 18  1  0
 18  2  1  0
M  END
>  <identifier>  (482) 
CNP0436830.1

>  <canonical_smiles>  (482) 
C[C@@H]1/C=C\C(C)(C)[C@@H](O)CC[C@](C)(O)[C@@H](O)CC1

>  <standard_inchi>  (482) 
InChI=1S/C15H28O3/c1-11-5-6-13(17)15(4,18)10-8-12(16)14(2,3)9-7-11/h7,9,11-13,16-18H,5-6,8,10H2,1-4H3/b9-7-/t11-,12-,13-,15-/m0/s1

>  <standard_inchi_key>  (482) 
JFKQGTYSPILQGO-CDMMRESASA-N

>  <name>  (482) 
Humul-7-en-1 4 11-triol

>  <iupac_name>  (482) 
(1~{S},2~{S},5~{S},7~{Z},9~{S})-2,6,6,9-tetramethylcycloundec-7-ene-1,2,5-triol

>  <annotation_level>  (482) 
5

>  <total_atom_count>  (482) 
46

>  <heavy_atom_count>  (482) 
18

>  <molecular_weight>  (482) 
256.39

>  <exact_molecular_weight>  (482) 
256.20384

>  <molecular_formula>  (482) 
C15H28O3

>  <alogp>  (482) 
2.25

>  <topological_polar_surface_area>  (482) 
60.69

>  <rotatable_bond_count>  (482) 
0

>  <hydrogen_bond_acceptors>  (482) 
3

>  <hydrogen_bond_donors>  (482) 
3

>  <hydrogen_bond_acceptors_lipinski>  (482) 
3

>  <hydrogen_bond_donors_lipinski>  (482) 
3

>  <lipinski_rule_of_five_violations>  (482) 
0

>  <aromatic_rings_count>  (482) 
0

>  <qed_drug_likeliness>  (482) 
0.58

>  <formal_charge>  (482) 
0

>  <fractioncsp3>  (482) 
0.87

>  <number_of_minimal_rings>  (482) 
1

>  <van_der_walls_volume>  (482) 
264.16

>  <contains_sugar>  (482) 
False

>  <contains_ring_sugars>  (482) 
False

>  <contains_linear_sugars>  (482) 
False

>  <murcko_framework>  (482) 
C1=CCCCCCCCCC1

>  <np_likeness>  (482) 
2.97

>  <chemical_class>  (482) 
Prenol lipids

>  <chemical_sub_class>  (482) 
Sesquiterpenoids

>  <chemical_super_class>  (482) 
Lipids and lipid-like molecules

>  <direct_parent_classification>  (482) 
Sesquiterpenoids

>  <np_classifier_pathway>  (482) 
Terpenoids

>  <np_classifier_superclass>  (482) 
Sesquiterpenoids

>  <np_classifier_class>  (482) 
Humulane sesquiterpenoids

>  <np_classifier_is_glycoside>  (482) 
False

>  <organisms>  (482) 
Aristolochia orbicularis

>  <collections>  (482) 
BIOFACQUIM|Latin America dataset

>  <dois>  (482) 
10.1021/acs.jnatprod.7b00226

>  <synonyms>  (482) 
Humul-7-en-1 4 11-triol

>  <cas>  (482) 
nan

$$$$

     RDKit          2D

 32 35  0  0  0  0  0  0  0  0999 V2000
    7.6794   -3.0209    0.0000 C   0  0  0  0  0  0  0  0  0  0  0  0
    7.2746   -1.5765    0.0000 C   0  0  0  0  0  0  0  0  0  0  0  0
    5.8214   -1.2048    0.0000 C   0  0  0  0  0  0  0  0  0  0  0  0
    5.4167    0.2395    0.0000 C   0  0  0  0  0  0  0  0  0  0  0  0
    3.9635    0.6112    0.0000 C   0  0  0  0  0  0  0  0  0  0  0  0
    3.5587    2.0556    0.0000 C   0  0  0  0  0  0  0  0  0  0  0  0
    4.6072    3.1283    0.0000 C   0  0  0  0  0  0  0  0  0  0  0  0
    2.1055    2.4273    0.0000 C   0  0  0  0  0  0  0  0  0  0  0  0
    1.5520    3.8214    0.0000 C   0  0  0  0  0  0  0  0  0  0  0  0
    0.0551    3.7258    0.0000 C   0  0  0  0  0  0  0  0  0  0  0  0
   -0.3166    2.2726    0.0000 C   0  0  0  0  0  0  0  0  0  0  0  0
   -1.6453    1.5764    0.0000 C   0  0  0  0  0  0  0  0  0  0  0  0
   -2.9125    2.3790    0.0000 C   0  0  0  0  0  0  0  0  0  0  0  0
   -4.2412    1.6828    0.0000 C   0  0  0  0  0  0  0  0  0  0  0  0
   -4.3026    0.1840    0.0000 C   0  0  0  0  0  0  0  0  0  0  0  0
   -5.6312   -0.5121    0.0000 C   0  0  0  0  0  0  0  0  0  0  0  0
   -7.1179   -0.7119    0.0000 C   0  0  0  0  0  0  0  0  0  0  0  0
   -6.0861    0.9172    0.0000 C   0  0  0  0  0  0  0  0  0  0  0  0
   -5.6926   -2.0109    0.0000 C   0  0  0  0  0  0  0  0  0  0  0  0
   -7.0213   -2.7071    0.0000 O   0  0  0  0  0  0  0  0  0  0  0  0
   -4.4254   -2.8134    0.0000 C   0  0  0  0  0  0  0  0  0  0  0  0
   -3.0967   -2.1173    0.0000 C   0  0  0  0  0  0  0  0  0  0  0  0
   -3.0353   -0.6185    0.0000 C   0  0  0  0  0  0  0  0  0  0  0  0
   -1.7681   -1.4211    0.0000 C   0  0  0  0  0  0  0  0  0  0  0  0
   -1.7067    0.0777    0.0000 C   0  0  0  0  0  0  0  0  0  0  0  0
   -0.4394   -0.7249    0.0000 C   0  0  0  0  0  0  0  0  0  0  0  0
    0.8892   -0.0287    0.0000 C   0  0  0  0  0  0  0  0  0  0  0  0
    0.9506    1.4700    0.0000 C   0  0  0  0  0  0  0  0  0  0  0  0
    2.2948    0.8044    0.0000 C   0  0  0  0  0  0  0  0  0  0  0  0
    4.7729   -2.2775    0.0000 C   0  0  0  0  0  0  0  0  0  0  0  0
    5.1776   -3.7219    0.0000 C   0  0  0  0  0  0  0  0  0  0  0  0
    3.3197   -1.9058    0.0000 C   0  0  0  0  0  0  0  0  0  0  0  0
  1  2  1  0
  3  2  1  1
  3  4  1  0
  4  5  1  0
  5  6  1  0
  6  7  1  0
  6  8  1  0
  8  9  1  0
  9 10  1  0
 10 11  1  0
 11 12  1  0
 12 13  1  0
 13 14  1  0
 14 15  2  0
 15 16  1  0
 16 17  1  0
 16 18  1  0
 16 19  1  0
 19 20  1  6
 19 21  1  0
 21 22  1  0
 22 23  1  0
 23 24  1  6
 23 25  1  0
 25 26  1  0
 26 27  1  0
 27 28  1  0
 28 29  1  6
  3 30  1  0
 30 31  1  0
 30 32  1  0
 28  8  1  0
 28 11  1  0
 25 12  1  0
 23 15  1  0
M  END
>  <identifier>  (483) 
CNP0286935.1

>  <canonical_smiles>  (483) 
CC[C@H](CCC(C)C1CCC2C3CC=C4C(C)(C)[C@@H](O)CC[C@]4(C)C3CC[C@]12C)C(C)C

>  <standard_inchi>  (483) 
InChI=1S/C31H54O/c1-9-22(20(2)3)11-10-21(4)24-13-14-25-23-12-15-27-29(5,6)28(32)17-19-31(27,8)26(23)16-18-30(24,25)7/h15,20-26,28,32H,9-14,16-19H2,1-8H3/t21?,22-,23?,24?,25?,26?,28+,30-,31-/m1/s1

>  <standard_inchi_key>  (483) 
GLBMPVHSHCXMMV-MAYFIENPSA-N

>  <name>  (483) 
nan

>  <iupac_name>  (483) 
(3~{S},10~{R},13~{R})-17-[(4~{R})-4-ethyl-1,5-dimethyl-hexyl]-4,4,10,13-tetramethyl-1,2,3,7,8,9,11,12,14,15,16,17-dodecahydrocyclopenta[a]phenanthren-3-ol

>  <annotation_level>  (483) 
5

>  <total_atom_count>  (483) 
86

>  <heavy_atom_count>  (483) 
32

>  <molecular_weight>  (483) 
442.77

>  <exact_molecular_weight>  (483) 
442.41747

>  <molecular_formula>  (483) 
C31H54O

>  <alogp>  (483) 
8.66

>  <topological_polar_surface_area>  (483) 
20.23

>  <rotatable_bond_count>  (483) 
6

>  <hydrogen_bond_acceptors>  (483) 
1

>  <hydrogen_bond_donors>  (483) 
1

>  <hydrogen_bond_acceptors_lipinski>  (483) 
1

>  <hydrogen_bond_donors_lipinski>  (483) 
1

>  <lipinski_rule_of_five_violations>  (483) 
1

>  <aromatic_rings_count>  (483) 
0

>  <qed_drug_likeliness>  (483) 
0.41

>  <formal_charge>  (483) 
0

>  <fractioncsp3>  (483) 
0.94

>  <number_of_minimal_rings>  (483) 
4

>  <van_der_walls_volume>  (483) 
477.29

>  <contains_sugar>  (483) 
False

>  <contains_ring_sugars>  (483) 
False

>  <contains_linear_sugars>  (483) 
False

>  <murcko_framework>  (483) 
C1=C2CCCCC2C3CCC4CCCC4C3C1

>  <np_likeness>  (483) 
2.78

>  <chemical_class>  (483) 
Steroids and steroid derivatives

>  <chemical_sub_class>  (483) 
Stigmastanes and derivatives

>  <chemical_super_class>  (483) 
Lipids and lipid-like molecules

>  <direct_parent_classification>  (483) 
Stigmastanes and derivatives

>  <np_classifier_pathway>  (483) 
Terpenoids

>  <np_classifier_superclass>  (483) 
Steroids

>  <np_classifier_class>  (483) 
Lanostane, Tirucallane and Euphane triterpenoids

>  <np_classifier_is_glycoside>  (483) 
False

>  <organisms>  (483) 
Bursera cuneata

>  <collections>  (483) 
BIOFACQUIM|Latin America dataset

>  <dois>  (483) 
10.1016/j.jep.2019.03.013

>  <synonyms>  (483) 
\u0152\u2264-sitosterol

>  <cas>  (483) 
nan

$$$$

     RDKit          2D

 33 37  0  0  0  0  0  0  0  0999 V2000
    6.4997   -2.3616    0.0000 C   0  0  0  0  0  0  0  0  0  0  0  0
    5.0809   -1.8747    0.0000 C   0  0  0  0  0  0  0  0  0  0  0  0
    4.8478   -3.3565    0.0000 C   0  0  0  0  0  0  0  0  0  0  0  0
    3.5812   -1.9024    0.0000 C   0  0  0  0  0  0  0  0  0  0  0  0
    2.8073   -0.6175    0.0000 C   0  0  0  0  0  0  0  0  0  0  0  0
    1.3076   -0.6452    0.0000 C   0  0  0  0  0  0  0  0  0  0  0  0
    0.5817   -1.9578    0.0000 C   0  0  0  0  0  0  0  0  0  0  0  0
   -0.9180   -1.9855    0.0000 C   0  0  0  0  0  0  0  0  0  0  0  0
   -1.6919   -0.7006    0.0000 C   0  0  0  0  0  0  0  0  0  0  0  0
   -3.1916   -0.7283    0.0000 C   0  0  0  0  0  0  0  0  0  0  0  0
   -2.4178   -2.0132    0.0000 C   0  0  0  0  0  0  0  0  0  0  0  0
   -3.9175   -2.0409    0.0000 C   0  0  0  0  0  0  0  0  0  0  0  0
   -5.4173   -2.0687    0.0000 C   0  0  0  0  0  0  0  0  0  0  0  0
   -6.1911   -0.7837    0.0000 C   0  0  0  0  0  0  0  0  0  0  0  0
   -7.6909   -0.8114    0.0000 O   0  0  0  0  0  0  0  0  0  0  0  0
   -5.4652    0.5290    0.0000 C   0  0  0  0  0  0  0  0  0  0  0  0
   -5.2321    2.0108    0.0000 C   0  0  0  0  0  0  0  0  0  0  0  0
   -6.8840    1.0159    0.0000 C   0  0  0  0  0  0  0  0  0  0  0  0
   -3.9655    0.5567    0.0000 C   0  0  0  0  0  0  0  0  0  0  0  0
   -3.2396    1.8694    0.0000 C   0  0  0  0  0  0  0  0  0  0  0  0
   -1.7399    1.8971    0.0000 C   0  0  0  0  0  0  0  0  0  0  0  0
   -0.9660    0.6121    0.0000 C   0  0  0  0  0  0  0  0  0  0  0  0
   -0.2401    1.9248    0.0000 C   0  0  0  0  0  0  0  0  0  0  0  0
    0.5337    0.6398    0.0000 C   0  0  0  0  0  0  0  0  0  0  0  0
    2.0335    0.6675    0.0000 C   0  0  0  0  0  0  0  0  0  0  0  0
    1.2596    1.9525    0.0000 C   0  0  0  0  0  0  0  0  0  0  0  0
    2.7594    1.9802    0.0000 C   0  0  0  0  0  0  0  0  0  0  0  0
    3.5332    0.6952    0.0000 C   0  0  0  0  0  0  0  0  0  0  0  0
    4.2591    2.0079    0.0000 C   0  0  0  0  0  0  0  0  0  0  0  0
    3.4852    3.2928    0.0000 O   0  0  0  0  0  0  0  0  0  0  0  0
    5.7588    2.0356    0.0000 O   0  0  0  0  0  0  0  0  0  0  0  0
    5.0330    0.7229    0.0000 C   0  0  0  0  0  0  0  0  0  0  0  0
    5.8068   -0.5620    0.0000 C   0  0  0  0  0  0  0  0  0  0  0  0
  1  2  1  0
  2  3  1  0
  2  4  1  0
  4  5  2  0
  5  6  1  0
  6  7  1  1
  7  8  1  0
  9  8  1  6
  9 10  1  0
 10 11  1  6
 10 12  1  0
 12 13  1  0
 13 14  1  0
 14 15  1  6
 14 16  1  0
 16 17  1  0
 16 18  1  0
 16 19  1  0
 19 20  1  0
 20 21  1  0
 21 22  1  0
 22 23  1  6
 22 24  1  0
 24 25  1  1
 24 26  1  0
 26 27  1  0
 27 28  1  0
 28 29  1  6
 29 30  2  0
 29 31  1  0
 28 32  1  0
 32 33  1  0
 33  2  1  0
 28  5  1  0
 24  6  1  0
 22  9  1  0
 19 10  1  0
M  END
>  <identifier>  (484) 
CNP0404360.1

>  <canonical_smiles>  (484) 
CC1(C)C=C2[C@H]3CC[C@@H]4[C@@]5(C)CC[C@H](O)C(C)(C)C5CC[C@@]4(C)[C@]3(C)CC[C@@]2(C(=O)O)CC1

>  <standard_inchi>  (484) 
InChI=1S/C30H48O3/c1-25(2)14-16-30(24(32)33)17-15-28(6)19(20(30)18-25)8-9-22-27(5)12-11-23(31)26(3,4)21(27)10-13-29(22,28)7/h18-19,21-23,31H,8-17H2,1-7H3,(H,32,33)/t19-,21?,22-,23+,27+,28-,29-,30+/m1/s1

>  <standard_inchi_key>  (484) 
RGZSSKBTFGNUCG-HTCMRERFSA-N

>  <name>  (484) 
(4aS,6aR,6bR,10S,12aR,12bR,14aS)-10-hydroxy-2,2,6a,6b,9,9,12a-heptamethyl-2,3,4,4a,5,6,6a,6b,7,8,8a,9,10,11,12,12a,12b,13,14,14a-icosahydropicene-4a-carboxylic acid

>  <iupac_name>  (484) 
(4~{a}~{S},6~{a}~{R},6~{a}~{R},6~{b}~{R},10~{S},12~{a}~{R},14~{a}~{S})-10-hydroxy-2,2,6~{a},6~{b},9,9,12~{a}-heptamethyl-3,4,5,6,6~{a},7,8,8~{a},10,11,12,13,14,14~{a}-tetradecahydropicene-4~{a}-carboxylic acid

>  <annotation_level>  (484) 
5

>  <total_atom_count>  (484) 
81

>  <heavy_atom_count>  (484) 
33

>  <molecular_weight>  (484) 
456.71

>  <exact_molecular_weight>  (484) 
456.36035

>  <molecular_formula>  (484) 
C30H48O3

>  <alogp>  (484) 
7.23

>  <topological_polar_surface_area>  (484) 
57.53

>  <rotatable_bond_count>  (484) 
1

>  <hydrogen_bond_acceptors>  (484) 
2

>  <hydrogen_bond_donors>  (484) 
2

>  <hydrogen_bond_acceptors_lipinski>  (484) 
2

>  <hydrogen_bond_donors_lipinski>  (484) 
2

>  <lipinski_rule_of_five_violations>  (484) 
1

>  <aromatic_rings_count>  (484) 
0

>  <qed_drug_likeliness>  (484) 
0.41

>  <formal_charge>  (484) 
0

>  <fractioncsp3>  (484) 
0.90

>  <number_of_minimal_rings>  (484) 
5

>  <van_der_walls_volume>  (484) 
457.84

>  <contains_sugar>  (484) 
False

>  <contains_ring_sugars>  (484) 
False

>  <contains_linear_sugars>  (484) 
False

>  <murcko_framework>  (484) 
C1=C2C(CCC1)CCC3C2CCC4C5CCCCC5CCC34

>  <np_likeness>  (484) 
2.73

>  <chemical_class>  (484) 
Prenol lipids

>  <chemical_sub_class>  (484) 
Triterpenoids

>  <chemical_super_class>  (484) 
Lipids and lipid-like molecules

>  <direct_parent_classification>  (484) 
Oleanane triterpenoids

>  <np_classifier_pathway>  (484) 
Terpenoids

>  <np_classifier_superclass>  (484) 
Triterpenoids

>  <np_classifier_class>  (484) 
Oleanane triterpenoids

>  <np_classifier_is_glycoside>  (484) 
False

>  <organisms>  (484) 
Bursera cuneata

>  <collections>  (484) 
BIOFACQUIM|Latin America dataset

>  <dois>  (484) 
10.1016/j.jep.2019.03.013

>  <synonyms>  (484) 
SCHEMBL13735149|Moronic acid

>  <cas>  (484) 
nan

$$$$

     RDKit          2D

 31 35  0  0  0  0  0  0  0  0999 V2000
   -6.4717   -2.5451    0.0000 C   0  0  0  0  0  0  0  0  0  0  0  0
   -5.6232   -1.3082    0.0000 C   0  0  0  0  0  0  0  0  0  0  0  0
   -6.2702    0.0451    0.0000 C   0  0  0  0  0  0  0  0  0  0  0  0
   -5.4217    1.2821    0.0000 C   0  0  0  0  0  0  0  0  0  0  0  0
   -3.9262    1.1657    0.0000 C   0  0  0  0  0  0  0  0  0  0  0  0
   -4.5732    2.5190    0.0000 C   0  0  0  0  0  0  0  0  0  0  0  0
   -3.0777    2.4027    0.0000 C   0  0  0  0  0  0  0  0  0  0  0  0
   -1.5822    2.2863    0.0000 C   0  0  0  0  0  0  0  0  0  0  0  0
   -0.9353    0.9330    0.0000 C   0  0  0  0  0  0  0  0  0  0  0  0
   -0.2883   -0.4202    0.0000 C   0  0  0  0  0  0  0  0  0  0  0  0
   -1.7838   -0.3039    0.0000 C   0  0  0  0  0  0  0  0  0  0  0  0
   -1.1368   -1.6572    0.0000 C   0  0  0  0  0  0  0  0  0  0  0  0
    0.3587   -1.7735    0.0000 C   0  0  0  0  0  0  0  0  0  0  0  0
    1.2072   -0.5366    0.0000 C   0  0  0  0  0  0  0  0  0  0  0  0
    2.7027   -0.6529    0.0000 C   0  0  0  0  0  0  0  0  0  0  0  0
    1.8542   -1.8899    0.0000 C   0  0  0  0  0  0  0  0  0  0  0  0
    3.3497   -2.0062    0.0000 C   0  0  0  0  0  0  0  0  0  0  0  0
    4.8452   -2.1226    0.0000 C   0  0  0  0  0  0  0  0  0  0  0  0
    5.6937   -0.8856    0.0000 C   0  0  0  0  0  0  0  0  0  0  0  0
    7.1891   -1.0020    0.0000 O   0  0  0  0  0  0  0  0  0  0  0  0
    5.0467    0.4677    0.0000 C   0  0  0  0  0  0  0  0  0  0  0  0
    4.9016    1.9606    0.0000 C   0  0  0  0  0  0  0  0  0  0  0  0
    6.4918    0.8698    0.0000 C   0  0  0  0  0  0  0  0  0  0  0  0
    3.5512    0.5840    0.0000 C   0  0  0  0  0  0  0  0  0  0  0  0
    2.9042    1.9373    0.0000 C   0  0  0  0  0  0  0  0  0  0  0  0
    1.4087    2.0537    0.0000 C   0  0  0  0  0  0  0  0  0  0  0  0
    0.5602    0.8167    0.0000 C   0  0  0  0  0  0  0  0  0  0  0  0
   -0.0868    2.1700    0.0000 C   0  0  0  0  0  0  0  0  0  0  0  0
   -3.2792   -0.1876    0.0000 C   0  0  0  0  0  0  0  0  0  0  0  0
   -4.1277   -1.4245    0.0000 C   0  0  0  0  0  0  0  0  0  0  0  0
   -3.4807   -2.7778    0.0000 C   0  0  0  0  0  0  0  0  0  0  0  0
  2  1  1  6
  2  3  1  0
  3  4  1  0
  4  5  1  0
  5  6  1  1
  5  7  1  0
  7  8  1  0
  8  9  1  0
  9 10  1  6
  9 11  1  0
 11 12  2  0
 12 13  1  0
 13 14  1  0
 14 15  1  0
 15 16  1  1
 15 17  1  0
 17 18  1  0
 18 19  1  0
 19 20  1  1
 19 21  1  0
 21 22  1  0
 21 23  1  0
 21 24  1  0
 24 25  1  0
 25 26  1  0
 26 27  1  0
 27 28  1  1
 11 29  1  0
 29 30  1  0
 30 31  1  1
 30  2  1  0
 29  5  1  0
 27  9  1  0
 27 14  1  0
 24 15  1  0
M  END
>  <identifier>  (485) 
CNP0299272.1

>  <canonical_smiles>  (485) 
C[C@@H]1CC[C@]2(C)CC[C@]3(C)C(=CCC4[C@@]5(C)CC[C@H](O)C(C)(C)C5CC[C@]43C)C2[C@H]1C

>  <standard_inchi>  (485) 
InChI=1S/C30H50O/c1-19-11-14-27(5)17-18-29(7)21(25(27)20(19)2)9-10-23-28(6)15-13-24(31)26(3,4)22(28)12-16-30(23,29)8/h9,19-20,22-25,31H,10-18H2,1-8H3/t19-,20+,22?,23?,24+,25?,27-,28+,29-,30-/m1/s1

>  <standard_inchi_key>  (485) 
FSLPMRQHCOLESF-LIYBYQANSA-N

>  <name>  (485) 
(3S,6aR,6bS,8aR,11R,12S,14bR)-4,4,6a,6b,8a,11,12,14b-octamethyl-1,2,3,4,4a,5,6,6a,6b,7,8,8a,9,10,11,12,12a,14,14a,14b-icosahydropicen-3-ol

>  <iupac_name>  (485) 
(3~{S},6~{a}~{R},6~{b}~{S},8~{a}~{R},11~{R},12~{S},14~{b}~{R})-4,4,6~{a},6~{b},8~{a},11,12,14~{b}-octamethyl-2,3,4~{a},5,6,7,8,9,10,11,12,12~{a},14,14~{a}-tetradecahydro-1~{H}-picen-3-ol

>  <annotation_level>  (485) 
5

>  <total_atom_count>  (485) 
81

>  <heavy_atom_count>  (485) 
31

>  <molecular_weight>  (485) 
426.73

>  <exact_molecular_weight>  (485) 
426.38617

>  <molecular_formula>  (485) 
C30H50O

>  <alogp>  (485) 
8.02

>  <topological_polar_surface_area>  (485) 
20.23

>  <rotatable_bond_count>  (485) 
0

>  <hydrogen_bond_acceptors>  (485) 
1

>  <hydrogen_bond_donors>  (485) 
1

>  <hydrogen_bond_acceptors_lipinski>  (485) 
1

>  <hydrogen_bond_donors_lipinski>  (485) 
1

>  <lipinski_rule_of_five_violations>  (485) 
1

>  <aromatic_rings_count>  (485) 
0

>  <qed_drug_likeliness>  (485) 
0.39

>  <formal_charge>  (485) 
0

>  <fractioncsp3>  (485) 
0.93

>  <number_of_minimal_rings>  (485) 
5

>  <van_der_walls_volume>  (485) 
445.30

>  <contains_sugar>  (485) 
False

>  <contains_ring_sugars>  (485) 
False

>  <contains_linear_sugars>  (485) 
False

>  <murcko_framework>  (485) 
C1=C2C3CCCCC3CCC2C4CCC5CCCCC5C4C1

>  <np_likeness>  (485) 
3.25

>  <chemical_class>  (485) 
Prenol lipids

>  <chemical_sub_class>  (485) 
Triterpenoids

>  <chemical_super_class>  (485) 
Lipids and lipid-like molecules

>  <direct_parent_classification>  (485) 
Taraxastane, ursane, and bauerane triterpenoids

>  <np_classifier_pathway>  (485) 
Terpenoids

>  <np_classifier_superclass>  (485) 
Triterpenoids

>  <np_classifier_class>  (485) 
Ursane and Taraxastane triterpenoids

>  <np_classifier_is_glycoside>  (485) 
False

>  <organisms>  (485) 
Bursera cuneata

>  <collections>  (485) 
BIOFACQUIM|Latin America dataset

>  <dois>  (485) 
10.1016/j.jep.2019.03.013

>  <synonyms>  (485) 
SCHEMBL12181528|\u0152\u00b1-amyrin

>  <cas>  (485) 
nan

$$$$

     RDKit          2D

 33 37  0  0  0  0  0  0  0  0999 V2000
   -2.9851   -3.1712    0.0000 C   0  0  0  0  0  0  0  0  0  0  0  0
   -3.7183   -1.8626    0.0000 C   0  0  0  0  0  0  0  0  0  0  0  0
   -5.2181   -1.8432    0.0000 C   0  0  0  0  0  0  0  0  0  0  0  0
   -5.9849   -3.1325    0.0000 C   0  0  0  0  0  0  0  0  0  0  0  0
   -5.9513   -0.5346    0.0000 C   0  0  0  0  0  0  0  0  0  0  0  0
   -5.1846    0.7546    0.0000 C   0  0  0  0  0  0  0  0  0  0  0  0
   -3.6847    0.7353    0.0000 C   0  0  0  0  0  0  0  0  0  0  0  0
   -4.4179    2.0439    0.0000 C   0  0  0  0  0  0  0  0  0  0  0  0
   -5.9178    2.0632    0.0000 O   0  0  0  0  0  0  0  0  0  0  0  0
   -3.6512    3.3331    0.0000 O   0  0  0  0  0  0  0  0  0  0  0  0
   -2.9180    2.0245    0.0000 C   0  0  0  0  0  0  0  0  0  0  0  0
   -1.4181    2.0051    0.0000 C   0  0  0  0  0  0  0  0  0  0  0  0
   -0.6850    0.6965    0.0000 C   0  0  0  0  0  0  0  0  0  0  0  0
    0.0482   -0.6121    0.0000 C   0  0  0  0  0  0  0  0  0  0  0  0
   -1.4517   -0.5927    0.0000 C   0  0  0  0  0  0  0  0  0  0  0  0
   -0.7185   -1.9013    0.0000 C   0  0  0  0  0  0  0  0  0  0  0  0
    0.7814   -1.9207    0.0000 C   0  0  0  0  0  0  0  0  0  0  0  0
    1.5481   -0.6315    0.0000 C   0  0  0  0  0  0  0  0  0  0  0  0
    3.0479   -0.6508    0.0000 C   0  0  0  0  0  0  0  0  0  0  0  0
    2.2812   -1.9401    0.0000 C   0  0  0  0  0  0  0  0  0  0  0  0
    3.7811   -1.9594    0.0000 C   0  0  0  0  0  0  0  0  0  0  0  0
    5.2810   -1.9788    0.0000 C   0  0  0  0  0  0  0  0  0  0  0  0
    6.0477   -0.6896    0.0000 C   0  0  0  0  0  0  0  0  0  0  0  0
    7.5476   -0.7089    0.0000 O   0  0  0  0  0  0  0  0  0  0  0  0
    5.3145    0.6191    0.0000 C   0  0  0  0  0  0  0  0  0  0  0  0
    5.0731    2.0995    0.0000 C   0  0  0  0  0  0  0  0  0  0  0  0
    6.7306    1.1138    0.0000 C   0  0  0  0  0  0  0  0  0  0  0  0
    3.8146    0.6384    0.0000 C   0  0  0  0  0  0  0  0  0  0  0  0
    3.0815    1.9470    0.0000 C   0  0  0  0  0  0  0  0  0  0  0  0
    1.5816    1.9664    0.0000 C   0  0  0  0  0  0  0  0  0  0  0  0
    0.8149    0.6772    0.0000 C   0  0  0  0  0  0  0  0  0  0  0  0
    0.0817    1.9858    0.0000 C   0  0  0  0  0  0  0  0  0  0  0  0
   -2.9516   -0.5734    0.0000 C   0  0  0  0  0  0  0  0  0  0  0  0
  2  1  1  1
  2  3  1  0
  3  4  1  6
  3  5  1  0
  5  6  1  0
  6  7  1  0
  7  8  1  1
  8  9  2  0
  8 10  1  0
  7 11  1  0
 11 12  1  0
 12 13  1  0
 13 14  1  6
 13 15  1  0
 15 16  2  0
 16 17  1  0
 18 17  1  1
 18 19  1  0
 19 20  1  1
 19 21  1  0
 21 22  1  0
 22 23  1  0
 23 24  1  1
 23 25  1  0
 25 26  1  0
 25 27  1  0
 25 28  1  0
 28 29  1  1
 29 30  1  0
 30 31  1  0
 31 32  1  1
 33 15  1  6
 33  2  1  0
 33  7  1  0
 31 13  1  0
 31 18  1  0
 28 19  1  0
M  END
>  <identifier>  (486) 
CNP0219063.2

>  <canonical_smiles>  (486) 
C[C@H]1[C@H](C)CC[C@]2(C(=O)O)CC[C@]3(C)C(=CC[C@@H]4[C@@]5(C)CC[C@H](O)C(C)(C)[C@@H]5CC[C@]43C)[C@H]12

>  <standard_inchi>  (486) 
InChI=1S/C30H48O3/c1-18-10-15-30(25(32)33)17-16-28(6)20(24(30)19(18)2)8-9-22-27(5)13-12-23(31)26(3,4)21(27)11-14-29(22,28)7/h8,18-19,21-24,31H,9-17H2,1-7H3,(H,32,33)/t18-,19+,21+,22-,23+,24+,27+,28-,29-,30+/m1/s1

>  <standard_inchi_key>  (486) 
WCGUUGGRBIKTOS-GPOJBZKASA-N

>  <name>  (486) 
Ursolic acid

>  <iupac_name>  (486) 
(1~{S},2~{R},4~{a}~{S},6~{a}~{R},6~{a}~{S},6~{b}~{R},8~{a}~{R},10~{S},12~{a}~{R},14~{b}~{S})-10-hydroxy-1,2,6~{a},6~{b},9,9,12~{a}-heptamethyl-2,3,4,5,6,6~{a},7,8,8~{a},10,11,12,13,14~{b}-tetradecahydro-1~{H}-picene-4~{a}-carboxylic acid

>  <annotation_level>  (486) 
5

>  <total_atom_count>  (486) 
81

>  <heavy_atom_count>  (486) 
33

>  <molecular_weight>  (486) 
456.71

>  <exact_molecular_weight>  (486) 
456.36035

>  <molecular_formula>  (486) 
C30H48O3

>  <alogp>  (486) 
7.09

>  <topological_polar_surface_area>  (486) 
57.53

>  <rotatable_bond_count>  (486) 
1

>  <hydrogen_bond_acceptors>  (486) 
2

>  <hydrogen_bond_donors>  (486) 
2

>  <hydrogen_bond_acceptors_lipinski>  (486) 
2

>  <hydrogen_bond_donors_lipinski>  (486) 
2

>  <lipinski_rule_of_five_violations>  (486) 
1

>  <aromatic_rings_count>  (486) 
0

>  <qed_drug_likeliness>  (486) 
0.41

>  <formal_charge>  (486) 
0

>  <fractioncsp3>  (486) 
0.90

>  <number_of_minimal_rings>  (486) 
5

>  <van_der_walls_volume>  (486) 
456.00

>  <contains_sugar>  (486) 
False

>  <contains_ring_sugars>  (486) 
False

>  <contains_linear_sugars>  (486) 
False

>  <murcko_framework>  (486) 
C1=C2C3CCCCC3CCC2C4CCC5CCCCC5C4C1

>  <np_likeness>  (486) 
3.19

>  <chemical_class>  (486) 
Prenol lipids

>  <chemical_sub_class>  (486) 
Triterpenoids

>  <chemical_super_class>  (486) 
Lipids and lipid-like molecules

>  <direct_parent_classification>  (486) 
Taraxastane, ursane, and bauerane triterpenoids

>  <np_classifier_pathway>  (486) 
Terpenoids

>  <np_classifier_superclass>  (486) 
Triterpenoids

>  <np_classifier_class>  (486) 
Ursane and Taraxastane triterpenoids

>  <np_classifier_is_glycoside>  (486) 
False

>  <organisms>  (486) 
A new engineered strain of Escherichia coli [DAR1 GPP2 dhaB1 dhaB2 dhaB3 dhaBX yqhD glpK gldA gap gaIP glk]|Abies nobilis|Abrus pulchellus subsp. cantoniensis|Acacia glaucescens|Acacia kempeana|Acacia lasiopetala|Acanthias vulgaris|Acer triflorum|Achillea clypeolata|Achillea lycaonica|Achyranthes aspera|Acicarpha tribuloides|Aconitum brevicalcaratum|Aconitum campylorrhynchum|Aconitum leucostomum|Aconitum palmatum|Aconitum tianschanicum|Aconitum zuccarini|Acrocomia sclerocarpa|Acrostichum aureum|Adenopeltis colliguaya|Adiantum caudatum|Aframomum sulcatum|Agaricus hortensis|Agarum cribrosum|Agathosma thymifolia|Agave utahensis|Ageratina tomentella|Aglaia elaeagnoidea|Aglaia elliptica|Agrimonia pilosa|Agrostis epigeios|Ahnfeltia plicata|Aka coralliphagum|Alangium premnifolium|Albatrellus caeruleoporus|Albertisia papuana|Albizia gummifera|Alhagi persarum|Alkanna hirsutissima|Allium stipitatum|Alstonia pittieri|Amanita pseudoporphyria|Amaranthus hybr|Ammodendron conollyi|Amsinckia menziesii|Anarsia lineatella|Angelica tarokoensis|Angelica ursina|Angiopteris evecta|Aniba rosaeodora|Anisopappus pinnatifidus|Annulohypoxylon cohaerens|Annulohypoxylon truncatum|Anoectochilus roxburghii|Anthocercis littorea|Anthocleista procera|Aphelasterias japonica|Aplidium meridianum|Aplidium orthium|Aplysia vaccaria|Aplysilla rosea|Aplysinella rhax|Apollonias barbujana|Apterostigma dentigerum|Aquilegia ecalcarata|Aralia continentalis|Araucaria araucana|Arbacia pustulosa|Arctium lappa|Arctostaphylos uva-ursi|Ardisia macrocarpa|Aria intermedia|Ariocarpus fissuratus|Aristolochia elegans|Artemisia alba|Artemisia argentea|Artemisia bigelovii|Artemisia hanseniana|Artemisia pedemontana|Artemisia tournefortiana|Artemisia umbelliformis|Arthrobotrys oligospora|Asarum heterotropoides|Asparagus africanus|Aspergillus arenarius|Aspergillus candidus|Aspergillus foveolatus|Aspergillus multicolor|Aspergillus quadrilineatus|Asphodeline damascena|Asphodeline tenuior|Asterias forbesi|Asterias glacialis|Asterias nipon|Asterias rubens|Astilbe myriantha|Astragalus asper|Astragalus gummifer|Astragalus pamirensis|Astragalus pterocarpus|Astragalus trigonus|Astragalus villosissimus|Atalantia roxburghiana|Athanasia crithmifolia|Aulacomnium androgynum|Avrainvillea nigricans|Bacillus megaterium CGMCC 1.1741|Badilloa salicina|Baeckea gunniana|Baillonella toxisperma|Barbarea verna|Barnettia kerrii|Beaumontia brevituba|Beauveria felina|Benkara malabarica|Benzoin praecox|Berberis brandisiana|Berberis julianae|Betula davurica|Bidens tripartita|Bipolaris zeicola|Bituminaria bituminosa|Blainvillea rhomboidea|Blitum virgatum|Blumea mollis|Bombax ceiba|Bombus hortorum|Bombus pascuorum|Bothriocline longipes|Bragantia wallichii|Brenneria rubrifaciens|Bridelia ferruginea|Brodiaea californica|Bryobium hyacinthoides|Bryum rutilans|Bryum weigelii|Buddleja scordioides|Buddleja variabilis|Bursera cuneata|Bystropogon origanifolius|Cacalia robusta|Cacumen tamaricis|Calea cuneifolia|Calea megacephala|Calypogeia integristipula|Calyx podatypa|Camellia sinensis|Campsis grandiflora|Campsis radicans|Capparis salicifolia|Caralluma stalagmifera|Cardamine pinnata|Cardiospermum halicacabum|Carissa edulis|Carpesium faberi|Casimiroa tetrameria|Castanopsis cuspidata|Castor fiber|Catananche caerulea|Ceanothus velutinus|Celtis philippinensis|Centaurea arbutifolia|Centaurea aspera|Centaurea cadmea|Centaurea cana|Centaurea diluta|Centaurea hololeuca|Centaurea horrida|Centaurea musimomum|Centaurea nigrescens|Centaurea seridis|Centella asiatica|Ceratocystis clavigera|Cerbera dilatata|Cercosporina kikuchii|Cereus weberi|Cetraria islandica|Cetraria pinastri|Chaenomeles japonica|Chaenomeles sinensis|Chaenomeles speciosa|Chaetomella raphigera|Chalina arbuscula|Chamaecyparis pisifera|Chelonia mydas|Chiococca alba|Chisocheton siamensis|Chlamydomonas allensworthii|Chlorophytum borivilianum|Chlorophytum malayense|Chrozophora obliqua|Cirsium brevistylum|Cirsium dipsacolepis|Cirsium japonicum|Cirsium wallichii|Cissus quinquefolia|Cistanche tubulosa|Citrus maxima|Cladiella krempfi|Cladonia amaurocraea|Cladonia pityrea|Clausena indica|Claviceps microcephala|Clematis tangutica|Clematis terniflora var. mandshurica|Cleome chrysantha|Cneorum pulverulentum|Cocculus diversifolius|Codonocarpus australis|Codonopsis cordifolioidea|Codonopsis pilosula var. modesta|Colchicum speciosum|Coleus coerulescens|Coleus garckeanus|Colobocentrotus atratus|Conandron ramondioides Sieb.et Zucc.|Consolida ajacis|Conyza canadensis|Coprosma australis|Cordia curassavica|Cordyline indivisa|Coreopsis fasciculata|Cornus officinalis|Coronophora gregaria|Cortinarius vinosipes|Corydalis calliantha|Corydalis claviculata|Corydalis cornuta|Corydalis sewerzowi|Corynascus setosus|Cosmos pringlei|Cotoneaster simonsii|Coussarea paniculata|Craibiodendron yunnanese|Crataegus laevigata|Crataegus monogyna|Crataegus pinnatifida|Crateva nurvala|Crematogaster africana|Crepis foetida|Crinum defixum|Crinum kirkii|Crotalaria novae-hollandiae|Croton rhamnifolius|Croton steenkampianus|Cryptolestes pusillus|Cryptomonas ovata|Cryptotaenia japonica|Ctenodiscus crispatus|Cuphea carthagenensis|Curvularia coicis|Cutleria multifida|Cyathocline purpurea|Cyathula tomentosa|Cyberlindnera jadinii|Cybister lateralimarginalis|Cydonia oblonga|Cynomorium songaricum|Cyphanthera spinescens|Cytisus austriacus|Cytisus scoparius|Dacrydium biforme|Dacryodes normandii|Daemonorops draco|Dahlstedtia araripensis|Dahlstedtia pentaphylla|Dalbergia stipulacea|Dalea purpurea|Daphne aurantiaca|Daphne lancifolia|Decaisnea fargesii|Delphinium andersoni|Delphinium campylocentrum|Dendrobium crepidatum|Dendrobium thyrsiflorum|Dendrodoris krebsii|Derris uliginosa|Desmodium oxyphyllum|Diaphus coeruleus|Diaphus suborbitalis|Dichotomaria marginata|Didemnum candidum|Didemnum inarmatum|Dinemasporium strigosum|Dioscorea althaeoides|Dioscoreophyllum cumminsii|Diospyros buxifolia|Diospyros dendo|Diospyros kaki|Diospyros verrucosa|Diotis maritima|Diphasia angolensis|Diphasiastrum alpinum|Diplodia sapinea|Diploschistes cretaceus|Dipsacus asper|Dipsacus asperoides|Dipterocarpus dyeri|Disepalum plagioneurum|Dolichandrone crispa|Doris verrucosa|Dorstenia lindeniana|Dracocephalum kotschyi|Dracocephalum moldavica|Drimia fugax|Drimia sanguinea|Drymaria cordata|Dryocosmus kuriphilus|Dryopteris crassirhizoma|Drypetes roxburghii|Duboisia myoporoides|Duboscia macrocarpa|Echinops kebericho|Echinops niveus|Echinops setifer|Echinopsis latifolius|Ecklonia radiata|Ehretia buxifolia|Elaeagnus commutata|Elsholtzia ciliata|Empetrum nigrum|Enterococcus faecalis|Ephedra lomatolepis|Epimedium davidii|Epipedobates anthonyi|Epipolasis kushimotoensis|Eremophila serrulata|Eria robusta|Eria subsessilis|Ericerus pela|Eriobotrya japonica|Eriogaster lanestris|Eriostemon brucei|Erium villosum|Erlangea rogersii|Erylus nobilis|Erysimum odoratum|Erythrina sacleuxii|Eskemukerjea megacarpum|Eucalyptus camaldulensis|Eucalyptus camaldulensis var.obtusa|Eucalyptus citriodora|Eucalyptus cladocalyx|Eucalyptus flocktoniae|Eucalyptus kitsoni|Eucalyptus kitsoniana|Eucalyptus rubida|Eucommia ulmoides|Euodia bodinieri|Euodia officinalis|Euodia ruticarpa|Euonymus maackii|Euonymus nanoides|Euphausia superba|Euphorbia antiquorum|Euphorbia characias|Euphorbia franckiana|Euphorbia hirta|Euphorbia sancta|Euphorbia segetalis|Euphrasia rubra|Eupolyphaga sinensis|Eupomatia laurina|Eurya japonica|Euthamia graminifolia|Eutypella scoparia|Evodia rutaecarpa|Excoecaria acerifolia|Exochorda giraldii|Fagara cuspidata|Fagara naranjillo|Fagus crenata|Fallopia multiflora|Fenneropenaeus orientalis|Ficus cordata subsp. salicifolia|Ficus microcarpa|Ficus mucuso|Ficus nervosa|Ficus sarmentosa var. thunbergii|Flemingia philippinensis|Flindersia brayleyana|Formica fusca|Forsythia suspensa|Forsythia viridissima|Fragaria vesca|Fraxinus ornus|Fritillaria cirrhosa|Fritillaria thunbergii|Fructus syzygii|Frullania tamarisci|Fucus spiralis|Fusarium avenaceum|Fusarium sacchari|Galenia africana|Garcinia cantleyana|Garcinia conrauana|Garcinia cowa|Garcinia hombroniana|Garcinia scortechinii|Gardenia tubifera|Gardneria insularis|Garrya laurifolia|Gasterosteus aculeatus|Gastrolobium callistachys|Genipa spruceana|Genista sessilifolia|Gentiana cruciata|Gentiana dahurica|Gentiana olivieri|Geranium nepalense|Gerbera piloselloides|Geum japonicum|Globba malaccensis|Glycine falcata|Glycyrrhiza glabra|Glycyrrhiza inflata|Glycyrrhiza lepidota|Glycyrrhiza squamulosa|Glycyrrhiza triphylla|Glycyrrhiza uralensis|Gnaphalium gaudichaudianum|Gnaphalium oligandrum|Gnetum cleistostachyum|Gnidia lamprantha|Gomphostemma parviflorum|Goupia glabra|Grataegus pinnatifida|Grindelia nana|Guatteria pogonopus|Gymnopus androsaceus|Gynura bicolor|Hakea saligna|Halichondria melanadocia|Halopitys incurvus|Haloxylon salicornicum|Haplopappus ciliatus|Hedysarum multijugum|Helichrysum candolleanum|Helichrysum dendroideum|Heliomeris multiflora|Heliotropium filifolium|Heliotropium glutinosum|Helipterum gnaphaloides|Heracleum sphondylium|Hertia intermedia|Heterotheca inuloides|Himantoglossum hircinum|Hippobroma longiflora|Hordeum vulgare var. distichon|Humulus scandens|Hydrocotyle ranunculoides|Hylocereus undatus|Hymenaea courbaril|Hymenophyllum recurvum|Hymenoxys microcephala|Hypericum japonicum|Hypericum triquetrifolium|Hypolepis punctata|Hypselodoris porterae|Hyptis brevipes|Hyrtios eubamma|Hyssopus officinalis|Igernella notabilis|Ilex amara|Ilex aquifolium L.|Ilex cornuta|Ilex paraguariensis|Ilex verticillata (L.) A. Gray|Inula cappa|Ipomoea cairica|Ipomoea purpurea|Ips paraconfusus|Ircinia aruensis|Iris hoogiana|Iris sanguinea|Iryanthera juruensis|Isodon japonicus|Isodon lophanthoides|Isodon rubescens|Isoplexis chalcantha|Ixeris denticulata|Ixeris tamagawaensis|Ixora coccinea|Jacobaea subalpina|Jasminum grandiflorum|Jateorhiza palmata|Juglans sinensis|Jungermannia obovata|Jungia polita|Juniperus formosana|Juniperus rigida|Kadsura interior|Kelletia kelletii|Kippistia suaedifolia|Klebsiella pneumoniae|Knightia deplanchei|Knightia excelsa|Knoxia valerianoides|Koompassia malaccensis|Kopsia albiflora|Kopsia grandifolia|Kopsia longiflora|Kummerowia striata|Laburnum watereri|Lactobacillus casei|Laetiporus versisporus|Lafoensia glyptocarpa|Laggera alata|Lambertella corni|Lantana camara L.|Lantana indica|Lasianthus fordii|Laurencia distichophylla|Laurencia mariannensis|Laurencia pacifica|Laurencia rigida|Lecanora lividocinerea|Ledebouria socialis|Leonurus cardiaca|Leonurus glaucescens|Lepidium draba|Lepidophorum repandum|Lepidorhinus squamosus|Leptogorgia alba|Leptosyne bigelovii|Leptothorax acervorum|Lethasterias fusca|Leucanthemum maximum|Licania pittieri|Ligularia dentata|Ligustrum japonicus|Ligustrum lucidum|Lindera sericea|Lindera umbellata|Liquidambar formosana|Lithothamnion corallioides|Litsea zeylanica|Lomentaria catenata|Lonchocarpus orotinus|Lonicera confusa|Lonicera fulvotomentosa|Lonicera hypoglauca|Lonicera japonica|Lonicera korolkovii|Lonicera macranthoides|Lophanthus chinensis|Lycoperdon pyriforme|Lycopus europaeus|Lycopus lucidus|Lyophyllum shimeji|Maba buxifolia|Machaerium kuhlmannii|Macrozamia communis|Magnolia sprengeri|Malassezia furfur|Malbranchea circinata|Mallotus repandus|Malus domestica|Malus doumeri varl formosana|Malus spp.|Malva sylvestris|Mandragora officinarum|Marsypianthes chamaedrys|Mascarenhasia arborescens|Matricaria parthenium|Maytenus buxifolia|Maytenus guianensis|Meconopsis napaulensis|Medinilla magnifica|Melaleuca ericifolia|Melaleuca genistifolia|Melaleuca uncinata|Melandryum firmum|Melanothamnus somalensis|Melibe leonina|Mentha arvensis|Mentha canadensis|Mentha pulegiformis|Merremia umbellata|Mesembryanthemum anatomicum|Mesua ferrea|Metanarthecium luteoviride|Metatrichia vesparium|Methanosarcina barkeri|Metzgeria pubescens|Micranthemum umbrosum|Microbispora rosea subsp. aerata|Microglossa zeylanica|Micromeria pineolens|Microtropis japonica|Millettia conraui|Mnium hornum|Modiolus demissus|Mollinedia costaricensis|Monascus purpureus|Monochaetia compta|Monochaetum vulcanicum|Monopteryx uaucu|Montanoa guatemalensis|Morinda citrifolia|Morinda citrifolia L.|Moringa oleifera|Mortierella elongata|Morus insignis|Morus macroura|Morus tinctoria|Morus yunnanensis|Mosla chinensis|Mucor hiemalis|Mucuna urens|Mulguraea tridens|Murdannia triquetra|Mycobacterium tuberculosis|Myrianthus arboreus|Myrica multiflora|Myrica rubra|Myristica fragrans|Myristica malabarica|Myrtaceae|Mytilus galloprovincialis|Narcissus triandrus|Nardostachys jatamansi|Nemalion vermiculare|Neocosmospora tenuicristata|Neopringlea integrifolia|Nephroma australe|Nerium oleander|Nicotiana gossei|Nidula candida|Nitraria tangutorum|Nothofagus pumilio|Notholaena lemmonii|Nuxia sphaerocephala|Ocimum basilicum|Ocypus olens|Oldenlandia diffusa|Olea europaea|Onobrychis bobrovii|Onopordum anatolicum|Onoseris alata|Oophaga histrionica|Ophelia neglecta|Ophiarthrum elegans|Ophiocoma scolopendrina|Ophioplocus japonicus|Ophiorrhiza liukiuensis|Origanum majorana|Origanum vulgare|Ormosia elata|Ormosia flava|Ormosia panamensis|Orobanche speciosa|Orthocaulis attenuatus|Orthosiphon stamineus|Oscillatoria princeps|Osmerus mordax|Osmitopsis osmitoides|Osmundaria colensoi|Osteophloeum platyspermum|Oxylobus arbutifolius|Ozoroa insignis|Paeonia lactiflora|Palafoxia rosea|Palicourea coriacea|Panax innovans|Papaver persicum|Paradendryphiella salina|Parastrephia lepidophylla|Parerythropodium fulvum|Parmelia gigas|Parmelia pokornyi|Parnassius phoebus|Patrinia scabiosifolia|Patrinia villosa|Pedicularis condensata|Pelargonium reniforme|Penicillium chrysogenum|Penicillium cinerascens|Penicillium citreonigrum|Penicillium viridicatum|Peniophora polygonia|Penstemon newberryi|Penstemon secundiflorus|Peperomia heyneana|Perilla frutescens|Perilla frutescens (L.) Britton var.japonica Hara|Perityle vaseyi|Perovskia abrotanoides|Persea indica|Persea mexicana|Persicaria filiformis|Pestalotiopsis virgatula|Petasites tricholobus|Petriella sordida|Petrosia corticata|Petteria ramentacea|Peyrousea umbellata|Phaleria cumingii|Pharbitis nil|Phebalium bilobum|Phebalium whitei|Phedimus kamtschaticus|Phegopteris bukoensis|Phlegmariurus fordii|Phleum africanum|Phlogacanthus thyrsiflorus|Phlomis nissolii|Phlomis regelii|Phlomoides hamosa|Phoebe formosana|Phormia regina|Phyllogeiton zeyheri|Phyllosma capensis|Phytolacca acinosa|Picradeniopsis oppositifolia|Picradeniopsis pringlei|Picris radicata|Pinus halepensis|Pinus montezumae|Pinus picea|Pinus thunbergii|Piper acutifolium|Piper aequale|Piper arboreum|Piper marginatum|Piptoporus australiensis|Plagiomnium cuspidatum|Plantago alpina|Plantago asiatica|Plantago cornuti|Plantago lanceolata|Plantago major|Platycarpha glomerata|Plectranthus lanuginosus|Plectranthus sylvestris|Pleogyne cunninghami|Pleogyne cunninghamii|Pleuronectes cynoglossus|Pluchea lanceolata|Podolepis longipedata|Podospora curvicolla|Podostictina degelii|Polygala amara|Polygala amarella|Polygonatum stenophyllum|Polyphaga sinensis|Populus yunnanensis|Porella swartziana|Portulaca pilosa|Potentilla chinensis|Pouzolzia occidentalis|Primula hirsuta|Prosopis spicigera|Proustia ilicifolia|Prunella vulgaris|Prunus avium|Prunus cerasoides|Prunus domestica|Pseudallescheria boydii|Pseudocyphellaria aurata|Pseudocyphellaria rubella|Pseudomonas putida|Pseudostellaria heterophylla|Psiadia punctulata|Psilotum nudum|Psora corallina|Psoroma crassum|Pteris aquilina|Pteris cristata|Pteris fauriei|Pteris pacifica|Pterocaulon rugosum|Ptilidium ciliare|Pulicaria wightiana|Punica granatum|Punica granatum L.|Punica granatum LINN.|Putterlickia verrucosa|Pyracantha coccinea|Pyrola decorata|Pyrola incarnata Fisch.|Pyrola japonica|Pyrus spp.|Quercus mongolica|Quercus serrata|Quercus sessiliflora|Rabdosia amethystoides|Radermachera boniana|Raphanus raphanistrum|Rathayibacter rathayi|Rauvolfia tetraphylla|Rhaponticum uniflorum|Rheum webbianum|Rhinella arenarum|Rhinella icterica|Rhizophora mangle|Rhodanthe maryonii|Rhodobacter sphaeroides|Rhododendron|Rhododendron brachycarpum|Rhododendron campylocarpum|Rhododendron farrerae|Rhododendron ferrugineum|Rhododendron formosanum|Rhynchosporium orthosporum|Ribes sanguineum|Riccia fluitans|Rodgersia podophylla|Rohdea wattii|Rosa agrestis|Rosa laevigata|Rosa rugosa|Rosmarinus officinalis|Rubia wallichiana DECNE|Rubia yunnanensis|Rubus chingii|Rubus coreanus|Rubus rosa|Rubus xanthocarpus|Rumex dentatus|Rumex nepalensis|Ruta microcarpa|Salacia chinensis|Salacia madagascariensis|Salix alba|Salix japonica|Salvia amplexicaulis Lam.|Salvia cavaleriei|Salvia coulteri|Salvia decora|Salvia miltiorrhiza|Salvia nubicola|Salvia officinalis|Salvia palaestina|Salvia prionitis|Salvia syriaca L.|Salvia urolepis|Samadera bidwillii|Samadera indica|Sanguinaria canadensis|Satureja cuneifolia|Satureja hortensis|Satureja montana|Saussurea carthamoides|Saussurea cordifolia|Saussurea triangulata|Scabiosa comosa|Scabiosa pyrenaica|Scapania aequiloba|Scapania nemorea|Schefflera divaricata|Schisandra sphaerandra|Schizonepeta multifida|Schizonepeta tenuifolia|Schizonepeta tenuisfolia|Scilla maritima|Sclerodoris tanya|Scutellaria lateriflora|Scutellaria seleriana|Scutellaria strigillosa|Scytonema ocellatum|Selinum carvifolium|Senecio callosus|Senecio cathcartensis|Senecio chinensis|Senecio flavus|Senecio grandiflorus|Senecio madagascariensis|Senecio scandens|Senecio sinuatus|Senecio variabilis|Senecio zoellneri|Septoria pistaciarum|Sequoia sempervirens|Sesbania grandiflora|Shigella flexneri|Sida cordifolia|Sidastrum acuminatum|Sideritis hirsuta|Sideritis lotsyi|Sideritis romana|Siegesbeckia pubescens|Sigesbeckia glabrescens|Sindora wallichii|Sinularia molesta|Smenospongia echina|Smilax glabra|Solanderia secunda|Solanum acaule|Solanum chilense|Solanum diflorum|Solanum giganteum|Solanum incanum|Solanum pseudopersicum|Solanum racemigerum|Solanum sisymbriifolium|Solenopsis invicta|Sordaria araneosa|Spartium junceum|Spathodea campanulata|Spergula japonica|Sphaeranthus africanus|Sphaerella asteroma|Spirographis spallanzani|Spodoptera eridania|Spodoptera littoralis|Stachys chinensis|Staehelina fruticosa|Stephania aculeata|Stephania sasakii|Stephania succifera|Stephania sutchuenensis|Stereocaulon azoreum|Stevia origanoides|Stevia salicifolia|Stiretrus anchorago|Streptomyces erythrochromogenes|Streptomyces eurythermus|Streptomyces fradiae|Streptomyces fumanus|Streptomyces griseovariabilis|Streptomyces lavendofoliae|Streptomyces libani|Streptomyces misawanensis|Streptomyces mobaraensis|Streptomyces netropsis|Streptomyces noursei|Streptomyces odorifer|Streptomyces sclerotialus|Streptomyces tauricus|Streptomyces tumescens|Strobilomyces floccopus|Strychnos ligustrina|Strychnos spinosa|Strychnos vanprukii|Stylotrichium rotundifolium|Styrax benzoin|Styrax japonicus|Styrax tonkinensis|Sutherlandia frutescens|Swertia angustifolia|Swertia delavayi|Swertia japonica|Symplocos lancifolia|Syncolostemon parviflorus|Synoicum castellatum|Syzygium aromaticum|Syzygium corticosum|Syzygium cumini|Syzygium nervosum|Talaromyces avellaneus|Talaromyces helicus|Tanacetum balsamitoides|Tanacetum praeteritum|Tapinella panuoides|Taraxacum bicorne|Tecoma heptaphylla|Tephrosia egregia|Terminalia catappa|Tetraneuris acaulis|Tetraria capillaris|Teucrium alyssifolium|Teucrium lanigerum|Teucrium pestalozzae|Thermopsis lanceolata|Thonningia sanguinea|Thorectandra excavatus|Thuja plicata|Thymbra spicata|Thymus vulgaris|Tichocarpus crinitus|Tiliacora triandra|Tithonia rotundifolia|Toddalia aculeata|Toxicodendron succedaneum|Trapa bicornis|Trichia floriformis|Trichilia claussenii|Trichoderma vinosum|Trichosurus vulpecula|Trifolium apertum|Trifolium strepens|Triglochin maritima|Triopha carpenteri|Tripodanthus acutifolius|Tulipa sylvestris|Turbinaria ornata|Turbo argyrostoma|Turraeanthus mannii|Ulva lactuca|Uncaria cordata|Uncaria gambier|Uncaria macrophylla|Uncaria rhynchophylla|Uncaria sinensis|Unonopsis glaucopetala|Urtica triangularis|Usnea japonica|Ustilago sphaerogena|Uvaria kirkii|Vaccaria hispanica|Vaccinium corymbosum|Vaccinium macrocarpon|Vaccinium myrtillus|Vaccinium oxycoccos|Vaccinium vitis-idaea|Valeriana fedtschenkoi|Valeriana hardwickii|Vallaris heynei|Vallaris solanacea|Vallota purpurea|Vatica cinerea|Vellozia streptophylla|Verbascum spinosum|Verbena littoralis|Verbena officinalis|Vernonia condensata|Vernonia serratuloides|Veronica kellereri|Veronica pectinata|Verpa digitaliformis|Vibrio fluvialis|Viburnum ayavacense|Viburnum furcatum|Viguiera annua|Viscum album|Viscum coloratum|Vismia jefensis|Vitex glabrata|Vitex negundo var. cannabifolia|Vitex rotundifolia|Vitex trifolia|Vitis betulifolia|Walsura chrysogyne|Witheringia solanacea|Woodfordia fruticosa|Wulfenia orientalis|Xanthoparmelia subincerta|Xestospongia testudinaria|Xyris indica|Yucca flexilis|Zaluzianskya capensis|Zanthoxylum brachyacanthum|Zanthoxylum monophyllum|Zanthoxylum rigidifolium|Zanthoxylum usambarense|Zeora sordida|Zephyranthes carinata|Zerynthia polyxena|Zieria smithii|Ziziphus jujuba|Zygosaccharomyces rouxii|callicarpa longissima|ilex sp.

>  <collections>  (486) 
ANPDB|Australian natural products|BIOFACQUIM|CMAUP (cCollective molecular activities of useful plants)|ChEBI NPs|InflamNat|KNApSaCK|Latin America dataset|NANPDB (Natural Products from Northern African Sources)|NPACT|NPASS|NPEdia|Phyto4Health|Super Natural II|TCMDB-Taiwan (Traditional Chinese Medicine database)|TIPdb (database of Taiwan indigenous plants)|TPPT (Toxic Plants–PhytoToxins)|VietHerb

>  <dois>  (486) 
10.1002/9780470744307.gat218|10.1002/biuz.19840140514|10.1016/S0944-7113(99)80034-8|10.1016/j.bmc.2010.01.010|10.1016/j.bmc.2017.05.009|10.1016/j.bmc.2018.07.025|10.1016/j.bmcl.2010.05.061|10.1016/j.bmcl.2010.10.058|10.1016/j.bmcl.2012.08.029|10.1016/j.bmcl.2013.12.098|10.1016/j.bmcl.2017.03.076|10.1016/j.bmcl.2017.09.031|10.1016/j.bmcl.2020.127193|10.1016/j.copbio.2003.08.005|10.1016/j.ejmech.2007.11.021|10.1016/j.jep.2019.03.013|10.1021/acs.jnatprod.0c00313|10.1021/acs.jnatprod.0c00464|10.1021/acs.jnatprod.5b00877|10.1021/acs.jnatprod.6b00392|10.1021/acs.jnatprod.6b00715|10.1021/acs.jnatprod.6b00783|10.1021/acs.jnatprod.6b01073|10.1021/acs.jnatprod.6b01141|10.1021/acs.jnatprod.8b00079|10.1021/acs.jnatprod.8b00450|10.1021/acs.jnatprod.9b00262|10.1021/acs.jnatprod.9b00777|10.1021/acs.jnatprod.9b01108|10.1021/np020379y|10.1021/np020431q|10.1021/np0204848|10.1021/np020577p|10.1021/np030469i|10.1021/np030531b|10.1021/np040059+|10.1021/np040072u|10.1021/np049600s|10.1021/np070038q|10.1021/np100502y|10.1021/np100778k|10.1021/np1007922|10.1021/np1008202|10.1021/np100896w|10.1021/np200022b|10.1021/np200060p|10.1021/np2002918|10.1021/np2005133|10.1021/np200932k|10.1021/np400533h|10.1021/np500509q|10.1021/np50068a041|10.1021/np700738k|10.1021/np800298w|10.1021/np800360a|10.1021/np800694b|10.1021/np900068t|10.1021/np960165e|10.1021/np980088i|10.1021/np990240w|10.1039/jr9520004065|10.1071/ch9832297|10.1080/14786410802214009|10.3109/08923973.2015.1021355|10.3390/molecules27020483

>  <synonyms>  (486) 
77-52-1|Prunol|Malol|Urson|3beta-Hydroxyurs-12-en-28-oic acid|Micromerol|(+)-Ursolic acid|3beta-Hydroxy-12-ursen-28-ic acid|CCRIS 7123|CHEBI:9908|ursolic-acid|NSC 4060|NSC-4060|EINECS 201-034-0|NSC-167406|UNII-P3M2575F3F|AI3-03109|HSDB 7685|P3M2575F3F|CHEMBL169|Urs-12-en-28-oic acid| 3beta-hydroxy-|.beta.-Ursolic acid|Bungeolic acid|URSOLIC ACID (USP-RS)|Prunol;Urson;Malol|MFCD00009621|SMR000445681|SR-01000779684|Urs-12-en-28-oic acid| 3-hydroxy-| (3.beta.)-|TNP00103|6Q5|3B-HYDROXYURS-12-EN-28-OIC ACID|Prestwick3_000089|Ursolic acid| >=90%|URSOLIC ACID MI|URSOLIC ACID HSDB|URSOLIC ACID INCI|SCHEMBL70205|BSPBio_000018|(1S|2R|4aS|6aR|6aS|6bR|8aR|10S|12aR|14bS)-10-hydroxy-1|2|6a|6b|9|9|12a-heptamethyl-2|3|4|5|6|6a|7|8|8a|10|11|12|13|14b-tetradecahydro-1H-picene-4a-carboxylic acid|MLS000728569|MLS002154196|MLS002207073|URSOLIC ACID WHO-DD|BPBio1_000020|N-Ethylhydroxylaminehydrochloride|TOS-BB-0966|DTXSID70883221|Ursolic acid| analytical standard|3beta-Hydroxyurs-12-en-28-oate|HMS2095A20|HMS2231P19|(1S|2R|4aS|6aS|6bR|8aR|10S|12aR|12bR|14bS)-10-hydroxy-1|2|6a|6b|9|9|12a-heptamethyl-1|2|3|4|4a|5|6|6a|6b|7|8|8a|9|10|11|12|12a|12b|13|14b-icosahydropicene-4a-carboxylic acid|HY-N0140|BDBM50148911|AKOS005228010|AKOS016023773|3.beta.-hydroxy-Urs-12-en-28-oate|CCG-208282|CS-3799|DB15588|LMPR0106180007|NCGC00017223-06|AS-35119|1ST001599|(3beta)-3-hydroxy-Urs-12-en-28-oic acid|AB00513802|NS00006443|U0065|C08988|A839123|Q416260|Q-201916|(3.BETA.)-3-HYDROXYURS-12-EN-28-OIC ACID|BRD-K68185022-001-02-3|BRD-K68185022-001-14-8|URSOLIC ACID (CONSTITUENT OF HOLY BASIL LEAF)|Ursolic acid| primary pharmaceutical reference standard|AF479D19-631E-48F1-8ABA-FB2A806046FA|(3beta|5beta|18alpha|20beta)-3-hydroxyurs-12-en-28-oic acid|Ursolic acid| European Pharmacopoeia (EP) Reference Standard|Ursolic acidMalol; Urson; 3beta-Hydroxyurs-12-en-28-oic acid|Ursolic acid| United States Pharmacopeia (USP) Reference Standard|Ursolic acid|Myrtaceae|3_-hydroxyurs-12-en-28-oic acid

>  <cas>  (486) 
77-52-1

$$$$

     RDKit          2D

 31 30  0  0  0  0  0  0  0  0999 V2000
   19.0658    0.3982    0.0000 C   0  0  0  0  0  0  0  0  0  0  0  0
   17.7682   -0.3542    0.0000 C   0  0  0  0  0  0  0  0  0  0  0  0
   16.4678    0.3934    0.0000 C   0  0  0  0  0  0  0  0  0  0  0  0
   15.1701   -0.3590    0.0000 C   0  0  0  0  0  0  0  0  0  0  0  0
   13.8697    0.3886    0.0000 C   0  0  0  0  0  0  0  0  0  0  0  0
   12.5720   -0.3638    0.0000 C   0  0  0  0  0  0  0  0  0  0  0  0
   11.2716    0.3838    0.0000 C   0  0  0  0  0  0  0  0  0  0  0  0
    9.9740   -0.3686    0.0000 C   0  0  0  0  0  0  0  0  0  0  0  0
    8.6735    0.3790    0.0000 C   0  0  0  0  0  0  0  0  0  0  0  0
    7.3759   -0.3734    0.0000 C   0  0  0  0  0  0  0  0  0  0  0  0
    6.0755    0.3741    0.0000 C   0  0  0  0  0  0  0  0  0  0  0  0
    4.7778   -0.3783    0.0000 C   0  0  0  0  0  0  0  0  0  0  0  0
    3.4774    0.3693    0.0000 C   0  0  0  0  0  0  0  0  0  0  0  0
    2.1797   -0.3831    0.0000 C   0  0  0  0  0  0  0  0  0  0  0  0
    0.8793    0.3645    0.0000 C   0  0  0  0  0  0  0  0  0  0  0  0
   -0.4183   -0.3879    0.0000 C   0  0  0  0  0  0  0  0  0  0  0  0
   -1.7188    0.3597    0.0000 C   0  0  0  0  0  0  0  0  0  0  0  0
   -3.0164   -0.3927    0.0000 C   0  0  0  0  0  0  0  0  0  0  0  0
   -4.3168    0.3549    0.0000 C   0  0  0  0  0  0  0  0  0  0  0  0
   -5.6145   -0.3975    0.0000 C   0  0  0  0  0  0  0  0  0  0  0  0
   -6.9149    0.3501    0.0000 C   0  0  0  0  0  0  0  0  0  0  0  0
   -8.2125   -0.4023    0.0000 C   0  0  0  0  0  0  0  0  0  0  0  0
   -9.5130    0.3453    0.0000 C   0  0  0  0  0  0  0  0  0  0  0  0
  -10.8106   -0.4071    0.0000 C   0  0  0  0  0  0  0  0  0  0  0  0
  -10.8078   -1.9071    0.0000 O   0  0  0  0  0  0  0  0  0  0  0  0
  -12.1110    0.3405    0.0000 O   0  0  0  0  0  0  0  0  0  0  0  0
  -13.4087   -0.4119    0.0000 C   0  0  0  0  0  0  0  0  0  0  0  0
  -14.7091    0.3357    0.0000 C   0  0  0  0  0  0  0  0  0  0  0  0
  -14.7119    1.8357    0.0000 O   0  0  0  0  0  0  0  0  0  0  0  0
  -16.0068   -0.4167    0.0000 C   0  0  0  0  0  0  0  0  0  0  0  0
  -17.3072    0.3309    0.0000 O   0  0  0  0  0  0  0  0  0  0  0  0
  1  2  1  0
  2  3  1  0
  3  4  1  0
  4  5  1  0
  5  6  1  0
  6  7  1  0
  7  8  1  0
  8  9  1  0
  9 10  1  0
 10 11  1  0
 11 12  1  0
 12 13  1  0
 13 14  1  0
 14 15  1  0
 15 16  1  0
 16 17  1  0
 17 18  1  0
 18 19  1  0
 19 20  1  0
 20 21  1  0
 21 22  1  0
 22 23  1  0
 23 24  1  0
 24 25  2  0
 24 26  1  0
 26 27  1  0
 27 28  1  0
 28 29  1  6
 28 30  1  0
 30 31  1  0
M  END
>  <identifier>  (487) 
CNP0279012.1

>  <canonical_smiles>  (487) 
CCCCCCCCCCCCCCCCCCCCCCCC(=O)OC[C@@H](O)CO

>  <standard_inchi>  (487) 
InChI=1S/C27H54O4/c1-2-3-4-5-6-7-8-9-10-11-12-13-14-15-16-17-18-19-20-21-22-23-27(30)31-25-26(29)24-28/h26,28-29H,2-25H2,1H3/t26-/m0/s1

>  <standard_inchi_key>  (487) 
KIWLCEXSSGNBJU-SANMLTNESA-N

>  <name>  (487) 
MG 24:0

>  <iupac_name>  (487) 
[(2~{S})-2,3-dihydroxypropyl] tetracosanoate

>  <annotation_level>  (487) 
5

>  <total_atom_count>  (487) 
85

>  <heavy_atom_count>  (487) 
31

>  <molecular_weight>  (487) 
442.73

>  <exact_molecular_weight>  (487) 
442.40221

>  <molecular_formula>  (487) 
C27H54O4

>  <alogp>  (487) 
7.48

>  <topological_polar_surface_area>  (487) 
66.76

>  <rotatable_bond_count>  (487) 
25

>  <hydrogen_bond_acceptors>  (487) 
4

>  <hydrogen_bond_donors>  (487) 
2

>  <hydrogen_bond_acceptors_lipinski>  (487) 
4

>  <hydrogen_bond_donors_lipinski>  (487) 
2

>  <lipinski_rule_of_five_violations>  (487) 
1

>  <aromatic_rings_count>  (487) 
0

>  <qed_drug_likeliness>  (487) 
0.11

>  <formal_charge>  (487) 
0

>  <fractioncsp3>  (487) 
0.96

>  <number_of_minimal_rings>  (487) 
0

>  <van_der_walls_volume>  (487) 
489.69

>  <contains_sugar>  (487) 
False

>  <contains_ring_sugars>  (487) 
False

>  <contains_linear_sugars>  (487) 
False

>  <murcko_framework>  (487) 
nan

>  <np_likeness>  (487) 
0.52

>  <chemical_class>  (487) 
Glycerolipids

>  <chemical_sub_class>  (487) 
Monoradylglycerols

>  <chemical_super_class>  (487) 
Lipids and lipid-like molecules

>  <direct_parent_classification>  (487) 
1-monoacylglycerols

>  <np_classifier_pathway>  (487) 
Fatty acids

>  <np_classifier_superclass>  (487) 
Glycerolipids

>  <np_classifier_class>  (487) 
Diacylglycerols

>  <np_classifier_is_glycoside>  (487) 
False

>  <organisms>  (487) 
Acacia farnesiana

>  <collections>  (487) 
Australian natural products|BIOFACQUIM|ConMedNP|FooDB|Latin America dataset

>  <dois>  (487) 
10.1016/j.jep.2018.10.031

>  <synonyms>  (487) 
1-lignoceroyl-glycerol|1-tetracosanoyl-rac-glycerol|MAG(24:0\/0:0)|MG(24:0\/0:0\/0:0)|Tetracosanoic acid (2S)-2 3-dihydroxypropyl ester

>  <cas>  (487) 
nan

$$$$

     RDKit          2D

 13 13  0  0  0  0  0  0  0  0999 V2000
   -3.6633    0.0000    0.0000 C   0  0  0  0  0  0  0  0  0  0  0  0
   -2.5295   -0.9820    0.0000 O   0  0  0  0  0  0  0  0  0  0  0  0
   -1.1121   -0.4910    0.0000 C   0  0  0  0  0  0  0  0  0  0  0  0
   -0.8286    0.9820    0.0000 C   0  0  0  0  0  0  0  0  0  0  0  0
   -1.9625    1.9640    0.0000 O   0  0  0  0  0  0  0  0  0  0  0  0
    0.5888    1.4730    0.0000 C   0  0  0  0  0  0  0  0  0  0  0  0
    0.8722    2.9459    0.0000 O   0  0  0  0  0  0  0  0  0  0  0  0
    1.7226    0.4910    0.0000 C   0  0  0  0  0  0  0  0  0  0  0  0
    3.1400    0.9820    0.0000 O   0  0  0  0  0  0  0  0  0  0  0  0
    1.4392   -0.9820    0.0000 C   0  0  0  0  0  0  0  0  0  0  0  0
    2.5731   -1.9640    0.0000 O   0  0  0  0  0  0  0  0  0  0  0  0
    0.0218   -1.4730    0.0000 C   0  0  0  0  0  0  0  0  0  0  0  0
   -0.2617   -2.9459    0.0000 O   0  0  0  0  0  0  0  0  0  0  0  0
  1  2  1  0
  3  2  1  1
  3  4  1  0
  4  5  1  6
  4  6  1  0
  6  7  1  1
  6  8  1  0
  8  9  1  1
  8 10  1  0
 10 11  1  6
 10 12  1  0
 12 13  1  6
 12  3  1  0
M  END
>  <identifier>  (488) 
CNP0201870.1

>  <canonical_smiles>  (488) 
CO[C@H]1[C@H](O)[C@@H](O)[C@@H](O)[C@H](O)[C@@H]1O

>  <standard_inchi>  (488) 
InChI=1S/C7H14O6/c1-13-7-5(11)3(9)2(8)4(10)6(7)12/h2-12H,1H3/t2-,3-,4-,5-,6+,7+/m0/s1

>  <standard_inchi_key>  (488) 
DSCFFEYYQKSRSV-KLJZZCKASA-N

>  <name>  (488) 
Pinitol

>  <iupac_name>  (488) 
(1~{R},2~{S},4~{S},5~{S})-6-methoxycyclohexane-1,2,3,4,5-pentol

>  <annotation_level>  (488) 
5

>  <total_atom_count>  (488) 
27

>  <heavy_atom_count>  (488) 
13

>  <molecular_weight>  (488) 
194.18

>  <exact_molecular_weight>  (488) 
194.07904

>  <molecular_formula>  (488) 
C7H14O6

>  <alogp>  (488) 
-3.18

>  <topological_polar_surface_area>  (488) 
110.38

>  <rotatable_bond_count>  (488) 
1

>  <hydrogen_bond_acceptors>  (488) 
6

>  <hydrogen_bond_donors>  (488) 
5

>  <hydrogen_bond_acceptors_lipinski>  (488) 
6

>  <hydrogen_bond_donors_lipinski>  (488) 
5

>  <lipinski_rule_of_five_violations>  (488) 
0

>  <aromatic_rings_count>  (488) 
0

>  <qed_drug_likeliness>  (488) 
0.30

>  <formal_charge>  (488) 
0

>  <fractioncsp3>  (488) 
1.00

>  <number_of_minimal_rings>  (488) 
1

>  <van_der_walls_volume>  (488) 
167.80

>  <contains_sugar>  (488) 
False

>  <contains_ring_sugars>  (488) 
False

>  <contains_linear_sugars>  (488) 
False

>  <murcko_framework>  (488) 
C1CCCCC1

>  <np_likeness>  (488) 
1.56

>  <chemical_class>  (488) 
Organooxygen compounds

>  <chemical_sub_class>  (488) 
Alcohols and polyols

>  <chemical_super_class>  (488) 
Organic oxygen compounds

>  <direct_parent_classification>  (488) 
Cyclohexanols

>  <np_classifier_pathway>  (488) 
Carbohydrates

>  <np_classifier_superclass>  (488) 
Polyols

>  <np_classifier_class>  (488) 
Cyclitols

>  <np_classifier_is_glycoside>  (488) 
False

>  <organisms>  (488) 
Abies amabilis|Acacia farnesiana|Albizia subdimidiata|Alcea rosea|Alcyonium utinomii|Aldisa sanguinea|Alpinia blepharocalyx|Anguilla japonica|Aonidiella aurantii|Aplysina archeri|Apuleia leiocarpa|Araiostegiella perdurans|Artocarpus altilis|Aspergillus carneus|Aspergillus striatus|Astragalus zahlbruckneri|Axinella cannabina|Baccharoides anthelmintica|Balanops australiana|Burkholderia cepacia|Cathormion altissimum|Centaurea solstitialis|Ceratonia siliqua|Chara ceratophylla|Coniophora puteana|Cortinarius odoratus|Cosmos diversifolius|Coussarea paniculata|Crocodylus niloticus|Cryptocarya oblata|Curcuma caesia|Dorycnium hirsutum|Eleutherobia albiflora|Erythrina pallida|Erythrophleum couminga|Eucalyptus australiana|Eucalyptus jenseni|Eunicea pinta|Euonymus tingens|Euphorbia cornigera|Genista ephedroides|Glycine max|Glycine soja|Gymnopus confluens|Hapalosiphon delicatulus|Hydrocotyle leucocephala|Hylocomium splendens|Hymenocallis speciosa|Hypoxylon carneum|Inga velutina|Jacmaia incana|Kokoona reflexa|Lactuca serriola|Lagochilus leiacanthus|Ligularia pleurocaulis|Lonchocarpus salvadorensis|Macrolepiota neomastoidea|Maesa ramentacea|Melolontha melolontha|Millettia laurentii|Monodora tenuifolia|Nierembergia hippomanica|Nigritella suaveolens|Nocardia brasiliensis|Nototodarus sloanii|Ocimum pilosum|Ocimum tenuiflorum|Onobrychis viciifolia|Ophioglossum petiolatum|Ophiopogon planiscapus|Ormosia nobilis|Oyedaea verbesinoides|Passalora smilacis|Pauridiantha callicarpoides|Penicillium janczewskii|Phelline lucida|Phyllopsora furfuracea|Pinus strobus|Pinus sylvestris|Piptostigma fugax|Pisum sativum|Pluchea odorata|Pseudoplexaura flagellosa|Pyrola calliantha|Rheum qinlingense|Rhododendron mucronatum|Rhododendron ungerni|Russula japonica|Salacia lehmbachii|Salvia yosgadensis|Sideritis brevibracteata|Sideroxylon cubense|Solanum berthaultii|Solenopsis punctaticeps|Sphoeroides vermicularis|Stizolophus coronopifolius|Streptomyces viridogenes|Strychnos tricalysioides|Trichodesma incanum|Urochloa decumbens|Viguiera decurrens|Xanthorrhoea resinosa|Xenia florida|Xenia obscuronata|Zanha africana

>  <collections>  (488) 
BIOFACQUIM|CMAUP (cCollective molecular activities of useful plants)|ChEBI NPs|DrugBankNP|FooDB|Latin America dataset|NPASS|NuBBEDB|Super Natural II|TCMDB-Taiwan (Traditional Chinese Medicine database)|ZINC NP

>  <dois>  (488) 
10.1016/S0031-9422(00)89891-X|10.1016/j.jep.2018.10.031|10.1021/jf200821p|10.1021/np970221r|10.1021/np980112s

>  <synonyms>  (488) 
Pinitol|D-Pinitol|(+)-pinitol

>  <cas>  (488) 
nan

$$$$

     RDKit          2D

 31 34  0  0  0  0  0  0  0  0999 V2000
   -1.9471   -3.7128    0.0000 O   0  0  0  0  0  0  0  0  0  0  0  0
   -2.2236   -2.2385    0.0000 C   0  0  0  0  0  0  0  0  0  0  0  0
   -3.6386   -1.7408    0.0000 C   0  0  0  0  0  0  0  0  0  0  0  0
   -3.9151   -0.2665    0.0000 C   0  0  0  0  0  0  0  0  0  0  0  0
   -5.3301    0.2312    0.0000 C   0  0  0  0  0  0  0  0  0  0  0  0
   -5.6066    1.7055    0.0000 C   0  0  0  0  0  0  0  0  0  0  0  0
   -7.0216    2.2032    0.0000 C   0  0  0  0  0  0  0  0  0  0  0  0
   -8.1601    1.2266    0.0000 C   0  0  0  0  0  0  0  0  0  0  0  0
   -9.5751    1.7244    0.0000 O   0  0  0  0  0  0  0  0  0  0  0  0
   -7.8837   -0.2477    0.0000 C   0  0  0  0  0  0  0  0  0  0  0  0
   -6.4686   -0.7454    0.0000 C   0  0  0  0  0  0  0  0  0  0  0  0
   -2.7765    0.7101    0.0000 O   0  0  0  0  0  0  0  0  0  0  0  0
   -1.3615    0.2124    0.0000 C   0  0  0  0  0  0  0  0  0  0  0  0
   -0.2230    1.1890    0.0000 C   0  0  0  0  0  0  0  0  0  0  0  0
    1.1921    0.6912    0.0000 C   0  0  0  0  0  0  0  0  0  0  0  0
    2.3306    1.6678    0.0000 O   0  0  0  0  0  0  0  0  0  0  0  0
    3.7456    1.1701    0.0000 C   0  0  0  0  0  0  0  0  0  0  0  0
    4.0221   -0.3042    0.0000 O   0  0  0  0  0  0  0  0  0  0  0  0
    5.4371   -0.8019    0.0000 C   0  0  0  0  0  0  0  0  0  0  0  0
    5.7136   -2.2762    0.0000 C   0  0  0  0  0  0  0  0  0  0  0  0
    4.5750   -3.2528    0.0000 O   0  0  0  0  0  0  0  0  0  0  0  0
    6.5757    0.1747    0.0000 C   0  0  0  0  0  0  0  0  0  0  0  0
    7.9907   -0.3230    0.0000 O   0  0  0  0  0  0  0  0  0  0  0  0
    6.2992    1.6490    0.0000 C   0  0  0  0  0  0  0  0  0  0  0  0
    7.4377    2.6256    0.0000 O   0  0  0  0  0  0  0  0  0  0  0  0
    4.8842    2.1467    0.0000 C   0  0  0  0  0  0  0  0  0  0  0  0
    4.6077    3.6210    0.0000 O   0  0  0  0  0  0  0  0  0  0  0  0
    1.4685   -0.7831    0.0000 C   0  0  0  0  0  0  0  0  0  0  0  0
    0.3300   -1.7596    0.0000 C   0  0  0  0  0  0  0  0  0  0  0  0
    0.6065   -3.2339    0.0000 O   0  0  0  0  0  0  0  0  0  0  0  0
   -1.0850   -1.2619    0.0000 C   0  0  0  0  0  0  0  0  0  0  0  0
  1  2  2  0
  2  3  1  0
  3  4  1  0
  4  5  1  1
  5  6  2  0
  6  7  1  0
  7  8  2  0
  8  9  1  0
  8 10  1  0
 10 11  2  0
  4 12  1  0
 12 13  1  0
 13 14  2  0
 14 15  1  0
 15 16  1  0
 17 16  1  1
 17 18  1  0
 18 19  1  0
 19 20  1  1
 20 21  1  0
 19 22  1  0
 22 23  1  6
 22 24  1  0
 24 25  1  1
 24 26  1  0
 26 27  1  6
 15 28  2  0
 28 29  1  0
 29 30  1  0
 29 31  2  0
 31  2  1  0
 11  5  1  0
 31 13  1  0
 26 17  1  0
M  END
>  <identifier>  (489) 
CNP0269114.1

>  <canonical_smiles>  (489) 
O=C1C[C@@H](C2=CC=C(O)C=C2)OC2=CC(O[C@@H]3O[C@H](CO)[C@@H](O)[C@H](O)[C@H]3O)=CC(O)=C12

>  <standard_inchi>  (489) 
InChI=1S/C21H22O10/c22-8-16-18(26)19(27)20(28)21(31-16)29-11-5-12(24)17-13(25)7-14(30-15(17)6-11)9-1-3-10(23)4-2-9/h1-6,14,16,18-24,26-28H,7-8H2/t14-,16+,18+,19-,20+,21+/m0/s1

>  <standard_inchi_key>  (489) 
DLIKSSGEMUFQOK-SFTVRKLSSA-N

>  <name>  (489) 
Prunin

>  <iupac_name>  (489) 
(2~{S})-5-hydroxy-2-(4-hydroxyphenyl)-7-[(2~{S},3~{R},4~{S},5~{S},6~{R})-3,4,5-trihydroxy-6-(hydroxymethyl)tetrahydropyran-2-yl]oxy-chroman-4-one

>  <annotation_level>  (489) 
5

>  <total_atom_count>  (489) 
53

>  <heavy_atom_count>  (489) 
31

>  <molecular_weight>  (489) 
434.4

>  <exact_molecular_weight>  (489) 
434.1213

>  <molecular_formula>  (489) 
C21H22O10

>  <alogp>  (489) 
-0.02

>  <topological_polar_surface_area>  (489) 
166.14

>  <rotatable_bond_count>  (489) 
4

>  <hydrogen_bond_acceptors>  (489) 
10

>  <hydrogen_bond_donors>  (489) 
6

>  <hydrogen_bond_acceptors_lipinski>  (489) 
10

>  <hydrogen_bond_donors_lipinski>  (489) 
6

>  <lipinski_rule_of_five_violations>  (489) 
1

>  <aromatic_rings_count>  (489) 
2

>  <qed_drug_likeliness>  (489) 
0.39

>  <formal_charge>  (489) 
0

>  <fractioncsp3>  (489) 
0.38

>  <number_of_minimal_rings>  (489) 
4

>  <van_der_walls_volume>  (489) 
361.86

>  <contains_sugar>  (489) 
True

>  <contains_ring_sugars>  (489) 
True

>  <contains_linear_sugars>  (489) 
False

>  <murcko_framework>  (489) 
O(c1ccc2c(OC(c3ccccc3)CC2)c1)C4OCCCC4

>  <np_likeness>  (489) 
2.16

>  <chemical_class>  (489) 
Flavonoids

>  <chemical_sub_class>  (489) 
Flavonoid glycosides

>  <chemical_super_class>  (489) 
Phenylpropanoids and polyketides

>  <direct_parent_classification>  (489) 
Flavonoid-7-O-glycosides

>  <np_classifier_pathway>  (489) 
Shikimates and Phenylpropanoids

>  <np_classifier_superclass>  (489) 
Flavonoids

>  <np_classifier_class>  (489) 
Flavanones

>  <np_classifier_is_glycoside>  (489) 
True

>  <organisms>  (489) 
Acacia adunca|Acacia farnesiana|Adiantum lunulatum|Agrostis epigeios|Alstonia spathulata|Alstonia undulifolia|Amathia pinnata|Anacystis montana|Annona cornifolia|Annulohypoxylon truncatum|Artemisia assoana|Asteriscus aquaticus|Asterospicularia laurae|Astragalus sempervirens|Betula platyphylla|Bishovia boliviensis|Blastochloris viridis|Calostephane divaricata|Capparis ovata|Capparis spinosa|Caragana aurantiaca|Cassine papillosa|Cerbera manghas|Chaenomeles sinensis|Charpentiera obovata|Cinnamomum subavenium|Clathria prolifera|Clematis tangutica|Cochlospermum gillivraei|Conus pulicarius|Cotyledon secunda|Crotalaria assamica|Crotalaria pallida|Croton montevidensis|Cynara scolymus|Datisca glomerata|Dioscorea olfersiana|Dracocephalum tanguticum|Drechslera avenae|Dumortiera hirsuta|Ecballium elaterium|Echinus microtuberculatus|Eucalyptus melliodora|Fagus fusca|Folium pini|Gnetum latifolium|Goniothalamus malayanus|Hedysarum connatum|Helichrysum auriceps|Helipterum roseum|Hubertia tomentosa|Hypericum laricifolium|Iotrochota purpurea|Ipomoea digitata|Ipomoea nil|Laurencia spectabilis|Leathesia nana|Lepisorus ussuriensis|Ligustrum obtusifolium|Litsea zeylanica|Lotus ucrainicus|Lycopersicon esculentum|Lysimachia mauritiana|Marrubium anisodon|Metridium senile|Miscanthus sinensis|Myelobia smerintha|Myristica cagayanensis|Nasutitermes ephratae|Naucleopsis ternstroemiiflora|Oophaga speciosa|Ophidiaster ophidianus|Paeonia rockii|Pastinaca sativa|Peltostigma guatemalense|Phebalium dentatum|Phoebe pittieri|Phyllanthus emblica|Phyllanthus oligospermus|Picea vulgaris|Polygonum flaccidum|Premna odorata|Prunus davidiana|Prunus persica|Pseudoalteromonas luteoviolacea|Pseudowintera colorata|Quercus imbricaria|Rauvolfia vomitoria|Rumex maritimus|Sabina sargentii|Salvia syriaca|Scrophularia koelzii|Scutellaria amoena|Silybum marianum|Sinularia depressa|Solanum andigena|Solanum laxum|Spiracantha cornifolia|Streptomyces avermectinius|Streptomyces platensis|Swertia franchetiana|Swertia punctata|Theobroma cacao|Tylophora tanakae|Vaccinium oxycoccos|Viguiera incana|Viscum articulatum|Vitis vinifera|Viviparus japonicus|Wikstroemia retusa|Zanthoxylum tetraspermum

>  <collections>  (489) 
Australian natural products|BIOFACQUIM|CMAUP (cCollective molecular activities of useful plants)|ChEBI NPs|ETM (Ethiopian Traditional Medicine) DB|Latin America dataset|NPASS|Phenol-explorer|Phyto4Health|Super Natural II|TCMDB-Taiwan (Traditional Chinese Medicine database)|VietHerb|ZINC NP

>  <dois>  (489) 
10.1016/0031-9422(75)80380-3|10.1016/j.bmcl.2010.09.086|10.1016/j.fitote.2017.04.008|10.1016/j.foodchem.2020.128444|10.1016/j.indcrop.2015.07.040|10.1016/j.jep.2018.10.031|10.1016/s0031-9422(00)90588-0|10.1021/jf049625x|10.1021/np50073a022|10.1021/np9004294

>  <synonyms>  (489) 
529-55-5|Naringenin-7-O-glucoside|Naringenin 7-O-beta-D-glucoside|CHEBI:28327|LSB8HDX4E5|(S)-7-(beta-D-Glucopyranosyloxy)-2|3-dihydro-5-hydroxy-2-(4-hydroxyphenyl)-4H-1-benzopyran-4-one|(2S)-5-hydroxy-2-(4-hydroxyphenyl)-4-oxo-3|4-dihydro-2H-chromen-7-yl beta-D-glucopyranoside|(S)-5-Hydroxy-2-(4-hydroxyphenyl)-7-(((2S|3R|4S|5S|6R)-3|4|5-trihydroxy-6-(hydroxymethyl)tetrahydro-2H-pyran-2-yl)oxy)chroman-4-one|PRUNIN PROTEIN| PRUNUS|MFCD00210548|NSC-135064|EINECS 208-464-8|Pru1 protein| Prunus|UNII-LSB8HDX4E5|Pru du 6 protein| Prunus|4'|5|7-Trihydroxyflavanone 7-O-.beta.-D-glucopyranoside|NARINGENIN 7-GLUCOSIDE|SCHEMBL318229|CHEMBL469654|DTXSID40967365|GLXC-14478|4H-1-Benzopyran-4-one| 7-(.beta.-D-glucopyranosyloxy)-2|3-dihydro-5-hydroxy-2-(4-hydroxyphenyl)-| (2S)-|HY-N1549|BDBM50249470|Prunin| >=95% (LC\/MS-ELSD)|AKOS037515151|CCG-208407|(2S)-naringenin 7-O-beta-D-glucoside|NCGC00163599-01|AC-35062|NARINGENIN 7-O-.BETA.-D-GLUCOSIDE|1ST175404|CS-0017098|NS00015840|C09099|NARINGENIN 7-.BETA.-D-GLUCOSIDE| (-)-|SR-05000013703|Q15424791|(2S)-5-HYDROXY-2-(4-HYDROXYPHENYL)-7-((2S|3R|4S|5S|6R)-3|4|5-TRIHYDROXY-6-(HYDROXYMETHYL)OXAN-2-YL)OXY-2|3-DIHYDROCHROMEN-4-ONE|(2S)-7-(.BETA.-D-GLUCOPYRANOSYLOXY)-2|3-DIHYDRO-5-HYDROXY-2-(4-HYDROXYPHENYL)-4H-1-BENZOPYRAN-4-ONE|4H-1-BENZOPYRAN-4-ONE| 7-(.BETA.-D-GLUCOPYRANOSYLOXY)-2|3-DIHYDRO-5-HYDROXY-2-(4-HYDROXYPHENYL)-| (S)-|(2S) naringenin 7-O-\u0152\u2264-glucopyranoside|prunin

>  <cas>  (489) 
529-55-5

$$$$

     RDKit          2D

 21 23  0  0  0  0  0  0  0  0999 V2000
   -4.1038    2.9225    0.0000 C   0  0  0  0  0  0  0  0  0  0  0  0
   -4.0621    1.4231    0.0000 O   0  0  0  0  0  0  0  0  0  0  0  0
   -2.7426    0.7096    0.0000 C   0  0  0  0  0  0  0  0  0  0  0  0
   -1.4650    1.4955    0.0000 C   0  0  0  0  0  0  0  0  0  0  0  0
   -0.1456    0.7820    0.0000 C   0  0  0  0  0  0  0  0  0  0  0  0
   -0.1038   -0.7175    0.0000 C   0  0  0  0  0  0  0  0  0  0  0  0
   -1.3814   -1.5034    0.0000 C   0  0  0  0  0  0  0  0  0  0  0  0
   -1.3396   -3.0028    0.0000 O   0  0  0  0  0  0  0  0  0  0  0  0
   -2.7008   -0.7898    0.0000 C   0  0  0  0  0  0  0  0  0  0  0  0
   -3.9785   -1.5757    0.0000 O   0  0  0  0  0  0  0  0  0  0  0  0
   -5.2979   -0.8622    0.0000 C   0  0  0  0  0  0  0  0  0  0  0  0
    1.2157   -1.4310    0.0000 C   0  0  0  0  0  0  0  0  0  0  0  0
    1.2574   -2.9304    0.0000 O   0  0  0  0  0  0  0  0  0  0  0  0
    2.4933   -0.6451    0.0000 C   0  0  0  0  0  0  0  0  0  0  0  0
    3.8127   -1.3586    0.0000 C   0  0  0  0  0  0  0  0  0  0  0  0
    5.0904   -0.5727    0.0000 C   0  0  0  0  0  0  0  0  0  0  0  0
    5.0486    0.9267    0.0000 C   0  0  0  0  0  0  0  0  0  0  0  0
    3.7291    1.6402    0.0000 C   0  0  0  0  0  0  0  0  0  0  0  0
    2.4515    0.8543    0.0000 C   0  0  0  0  0  0  0  0  0  0  0  0
    1.1321    1.5679    0.0000 N   0  0  0  0  0  0  0  0  0  0  0  0
    1.0903    3.0673    0.0000 C   0  0  0  0  0  0  0  0  0  0  0  0
  1  2  1  0
  2  3  1  0
  3  4  2  0
  4  5  1  0
  5  6  2  0
  6  7  1  0
  7  8  1  0
  7  9  2  0
  9 10  1  0
 10 11  1  0
  6 12  1  0
 12 13  2  0
 12 14  1  0
 14 15  2  0
 15 16  1  0
 16 17  2  0
 17 18  1  0
 18 19  2  0
 19 20  1  0
 20 21  1  0
  9  3  1  0
 19 14  1  0
 20  5  1  0
M  END
>  <identifier>  (490) 
CNP0178533.0

>  <canonical_smiles>  (490) 
COC1=CC2=C(C(O)=C1OC)C(=O)C1=CC=CC=C1N2C

>  <standard_inchi>  (490) 
InChI=1S/C16H15NO4/c1-17-10-7-5-4-6-9(10)14(18)13-11(17)8-12(20-2)16(21-3)15(13)19/h4-8,19H,1-3H3

>  <standard_inchi_key>  (490) 
ATBZZQPALSPNMF-UHFFFAOYSA-N

>  <name>  (490) 
Arborinine

>  <iupac_name>  (490) 
1-hydroxy-2,3-dimethoxy-10-methyl-acridin-9-one

>  <annotation_level>  (490) 
5

>  <total_atom_count>  (490) 
36

>  <heavy_atom_count>  (490) 
21

>  <molecular_weight>  (490) 
285.3

>  <exact_molecular_weight>  (490) 
285.10011

>  <molecular_formula>  (490) 
C16H15NO4

>  <alogp>  (490) 
2.41

>  <topological_polar_surface_area>  (490) 
60.69

>  <rotatable_bond_count>  (490) 
2

>  <hydrogen_bond_acceptors>  (490) 
5

>  <hydrogen_bond_donors>  (490) 
1

>  <hydrogen_bond_acceptors_lipinski>  (490) 
5

>  <hydrogen_bond_donors_lipinski>  (490) 
1

>  <lipinski_rule_of_five_violations>  (490) 
0

>  <aromatic_rings_count>  (490) 
3

>  <qed_drug_likeliness>  (490) 
0.73

>  <formal_charge>  (490) 
0

>  <fractioncsp3>  (490) 
0.19

>  <number_of_minimal_rings>  (490) 
3

>  <van_der_walls_volume>  (490) 
246.88

>  <contains_sugar>  (490) 
False

>  <contains_ring_sugars>  (490) 
False

>  <contains_linear_sugars>  (490) 
False

>  <murcko_framework>  (490) 
c1ccc2c(c1)Nc3ccccc3C2

>  <np_likeness>  (490) 
0.71

>  <chemical_class>  (490) 
Quinolines and derivatives

>  <chemical_sub_class>  (490) 
Benzoquinolines

>  <chemical_super_class>  (490) 
Organoheterocyclic compounds

>  <direct_parent_classification>  (490) 
Acridones

>  <np_classifier_pathway>  (490) 
Alkaloids

>  <np_classifier_superclass>  (490) 
Anthranilic acid alkaloids

>  <np_classifier_class>  (490) 
Acridone alkaloids

>  <np_classifier_is_glycoside>  (490) 
False

>  <organisms>  (490) 
Allium ramosum|Almeidea rubra|Bauerella simplicifolia|Boronia anemonifolia|Cassia singueana|Cladosporium phlei|Dacrydium fonkii|Daphne tangutica|Erigeron acris|Euodia alata|Euodia xanthoxyloides|Evodia alata|Fagara leprieurii|Fusarium sulphureum|Glycosmis arborea|Ilex oblonga|Melicope micrococca|Nemopilema nomurai|Pachysandra axillaris|Prunus padus|Ruta chalepensis L.|Ruta graveolens|Ruta graveolens L.|Strychnos potatorum|Teclea gerrardii|Teclea natalensis|Teclea nobilis|Teclea trichocarpa|Tricleocarpa fragilis|Vitellaria paradoxa|Zanthoxylum leprieurii

>  <collections>  (490) 
ANPDB|AfroDB|AfroMalariaDB|Australian natural products|BIOFACQUIM|CMAUP (cCollective molecular activities of useful plants)|ChEBI NPs|KNApSaCK|Latin America dataset|Mitishamba database|NANPDB (Natural Products from Northern African Sources)|NPASS|NPCARE|NPEdia|NuBBEDB|Phyto4Health|Specs Natural Products|Super Natural II|TCMDB-Taiwan (Traditional Chinese Medicine database)|TCMID (Traditional Chinese Medicine Integrated Database)|TIPdb (database of Taiwan indigenous plants)|TPPT (Toxic Plants–PhytoToxins)|UNPD (Universal Natural Products Database)|VietHerb

>  <dois>  (490) 
10.1002/9780470744307.gat218|10.1002/biuz.19840140514|10.1002/food.19880321030|10.1016/j.bmc.2010.03.040|10.1016/s0031-9422(98)00673-6|10.1021/np0106182|10.1021/np0400611|10.1071/ch9671719|10.1590/S0103-50531998000100007|10.3390/molecules23102693

>  <synonyms>  (490) 
5489-57-6|Arborinin|Arbornine|1-hydroxy-2|3-dimethoxy-10-methylacridin-9-one|9-Acridanone| 1-hydroxy-2|3-dimethoxy-10-methyl-|CHEBI:2804|CHEMBL349609|16XG8UE639|NSC-94650|NSC681020|1-Hydroxy-2|3-dimethoxy-10-methyl-9(10H)-acridinone|1-HYDROXY-2|3-DIMETHOXY-10-METHYL-9|10-DIHYDROACRIDIN-9-ONE|NSC 94650|UNII-16XG8UE639|SCHEMBL1663913|DTXSID60203378|ATBZZQPALSPNMF-UHFFFAOYSA-N|BDBM50049390|9-Acridanone|3-dimethoxy-10-methyl-|AKOS040761369|XA163699|DS-009297|HY-128912|CS-0102112|NS00094756|Q27105822|9(10H)-Acridinone| 1-hydroxy-2|3-dimethoxy-10-methyl- (9CI)|arborinine

>  <cas>  (490) 
5489-57-6

$$$$

     RDKit          2D

 22 24  0  0  0  0  0  0  0  0999 V2000
   -5.1936   -1.1705    0.0000 C   0  0  0  0  0  0  0  0  0  0  0  0
   -3.8513   -1.8401    0.0000 O   0  0  0  0  0  0  0  0  0  0  0  0
   -2.6003   -1.0124    0.0000 C   0  0  0  0  0  0  0  0  0  0  0  0
   -2.6916    0.4848    0.0000 C   0  0  0  0  0  0  0  0  0  0  0  0
   -4.0339    1.1544    0.0000 O   0  0  0  0  0  0  0  0  0  0  0  0
   -4.1252    2.6516    0.0000 C   0  0  0  0  0  0  0  0  0  0  0  0
   -1.4406    1.3125    0.0000 C   0  0  0  0  0  0  0  0  0  0  0  0
   -1.5319    2.8097    0.0000 O   0  0  0  0  0  0  0  0  0  0  0  0
   -0.0984    0.6429    0.0000 C   0  0  0  0  0  0  0  0  0  0  0  0
   -0.0071   -0.8543    0.0000 C   0  0  0  0  0  0  0  0  0  0  0  0
   -1.2581   -1.6820    0.0000 C   0  0  0  0  0  0  0  0  0  0  0  0
   -1.1668   -3.1792    0.0000 O   0  0  0  0  0  0  0  0  0  0  0  0
    1.3352   -1.5238    0.0000 C   0  0  0  0  0  0  0  0  0  0  0  0
    1.4265   -3.0211    0.0000 O   0  0  0  0  0  0  0  0  0  0  0  0
    2.5862   -0.6962    0.0000 C   0  0  0  0  0  0  0  0  0  0  0  0
    3.9285   -1.3657    0.0000 C   0  0  0  0  0  0  0  0  0  0  0  0
    5.1795   -0.5381    0.0000 C   0  0  0  0  0  0  0  0  0  0  0  0
    5.0882    0.9592    0.0000 C   0  0  0  0  0  0  0  0  0  0  0  0
    3.7459    1.6287    0.0000 C   0  0  0  0  0  0  0  0  0  0  0  0
    2.4949    0.8010    0.0000 C   0  0  0  0  0  0  0  0  0  0  0  0
    1.1526    1.4706    0.0000 N   0  0  0  0  0  0  0  0  0  0  0  0
    1.0613    2.9678    0.0000 C   0  0  0  0  0  0  0  0  0  0  0  0
  1  2  1  0
  2  3  1  0
  3  4  2  0
  4  5  1  0
  5  6  1  0
  4  7  1  0
  7  8  1  0
  7  9  2  0
  9 10  1  0
 10 11  2  0
 11 12  1  0
 10 13  1  0
 13 14  2  0
 13 15  1  0
 15 16  2  0
 16 17  1  0
 17 18  2  0
 18 19  1  0
 19 20  2  0
 20 21  1  0
 21 22  1  0
 11  3  1  0
 20 15  1  0
 21  9  1  0
M  END
>  <identifier>  (491) 
CNP0505522.0

>  <canonical_smiles>  (491) 
COC1=C(OC)C(O)=C2C(=C1O)C(=O)C1=CC=CC=C1N2C

>  <standard_inchi>  (491) 
InChI=1S/C16H15NO5/c1-17-9-7-5-4-6-8(9)12(18)10-11(17)14(20)16(22-3)15(21-2)13(10)19/h4-7,19-20H,1-3H3

>  <standard_inchi_key>  (491) 
FOOHXZFAWMXFKZ-UHFFFAOYSA-N

>  <name>  (491) 
17014-60-7

>  <iupac_name>  (491) 
1,4-dihydroxy-2,3-dimethoxy-10-methyl-acridin-9-one

>  <annotation_level>  (491) 
5

>  <total_atom_count>  (491) 
37

>  <heavy_atom_count>  (491) 
22

>  <molecular_weight>  (491) 
301.3

>  <exact_molecular_weight>  (491) 
301.09502

>  <molecular_formula>  (491) 
C16H15NO5

>  <alogp>  (491) 
2.12

>  <topological_polar_surface_area>  (491) 
80.92

>  <rotatable_bond_count>  (491) 
2

>  <hydrogen_bond_acceptors>  (491) 
6

>  <hydrogen_bond_donors>  (491) 
2

>  <hydrogen_bond_acceptors_lipinski>  (491) 
6

>  <hydrogen_bond_donors_lipinski>  (491) 
2

>  <lipinski_rule_of_five_violations>  (491) 
0

>  <aromatic_rings_count>  (491) 
3

>  <qed_drug_likeliness>  (491) 
0.56

>  <formal_charge>  (491) 
0

>  <fractioncsp3>  (491) 
0.19

>  <number_of_minimal_rings>  (491) 
3

>  <van_der_walls_volume>  (491) 
255.55

>  <contains_sugar>  (491) 
False

>  <contains_ring_sugars>  (491) 
False

>  <contains_linear_sugars>  (491) 
False

>  <murcko_framework>  (491) 
c1ccc2c(c1)Nc3ccccc3C2

>  <np_likeness>  (491) 
0.66

>  <chemical_class>  (491) 
Quinolines and derivatives

>  <chemical_sub_class>  (491) 
Benzoquinolines

>  <chemical_super_class>  (491) 
Organoheterocyclic compounds

>  <direct_parent_classification>  (491) 
Acridones

>  <np_classifier_pathway>  (491) 
Alkaloids

>  <np_classifier_superclass>  (491) 
Anthranilic acid alkaloids

>  <np_classifier_class>  (491) 
Acridone alkaloids

>  <np_classifier_is_glycoside>  (491) 
False

>  <organisms>  (491) 
Ruta graveolens

>  <collections>  (491) 
BIOFACQUIM

>  <dois>  (491) 
10.3390/molecules23102693

>  <synonyms>  (491) 
1|4-Dihydroxy-2|3-dimethoxy-10-methylacridin-9(10H)-one|DTXSID20702453

>  <cas>  (491) 
nan

$$$$

     RDKit          2D

 19 21  0  0  0  0  0  0  0  0999 V2000
   -4.9117    2.1840    0.0000 C   0  0  0  0  0  0  0  0  0  0  0  0
   -4.6785    0.7022    0.0000 O   0  0  0  0  0  0  0  0  0  0  0  0
   -3.2787    0.1633    0.0000 C   0  0  0  0  0  0  0  0  0  0  0  0
   -3.0455   -1.3185    0.0000 C   0  0  0  0  0  0  0  0  0  0  0  0
   -1.6456   -1.8574    0.0000 C   0  0  0  0  0  0  0  0  0  0  0  0
   -1.4124   -3.3391    0.0000 O   0  0  0  0  0  0  0  0  0  0  0  0
   -0.4790   -0.9145    0.0000 C   0  0  0  0  0  0  0  0  0  0  0  0
    0.9209   -1.4534    0.0000 C   0  0  0  0  0  0  0  0  0  0  0  0
    1.1541   -2.9352    0.0000 O   0  0  0  0  0  0  0  0  0  0  0  0
    2.0875   -0.5106    0.0000 C   0  0  0  0  0  0  0  0  0  0  0  0
    3.4874   -1.0495    0.0000 C   0  0  0  0  0  0  0  0  0  0  0  0
    4.6540   -0.1067    0.0000 C   0  0  0  0  0  0  0  0  0  0  0  0
    4.4208    1.3751    0.0000 C   0  0  0  0  0  0  0  0  0  0  0  0
    3.0209    1.9140    0.0000 C   0  0  0  0  0  0  0  0  0  0  0  0
    1.8543    0.9712    0.0000 C   0  0  0  0  0  0  0  0  0  0  0  0
    0.4545    1.5101    0.0000 N   0  0  0  0  0  0  0  0  0  0  0  0
    0.2212    2.9918    0.0000 C   0  0  0  0  0  0  0  0  0  0  0  0
   -0.7122    0.5672    0.0000 C   0  0  0  0  0  0  0  0  0  0  0  0
   -2.1120    1.1061    0.0000 C   0  0  0  0  0  0  0  0  0  0  0  0
  1  2  1  0
  2  3  1  0
  3  4  2  0
  4  5  1  0
  5  6  1  0
  5  7  2  0
  7  8  1  0
  8  9  2  0
  8 10  1  0
 10 11  2  0
 11 12  1  0
 12 13  2  0
 13 14  1  0
 14 15  2  0
 15 16  1  0
 16 17  1  0
 16 18  1  0
 18 19  2  0
 19  3  1  0
 18  7  1  0
 15 10  1  0
M  END
>  <identifier>  (492) 
CNP0285334.0

>  <canonical_smiles>  (492) 
COC1=CC(O)=C2C(=O)C3=CC=CC=C3N(C)C2=C1

>  <standard_inchi>  (492) 
InChI=1S/C15H13NO3/c1-16-11-6-4-3-5-10(11)15(18)14-12(16)7-9(19-2)8-13(14)17/h3-8,17H,1-2H3

>  <standard_inchi_key>  (492) 
OCUBFJMZYYIVBO-UHFFFAOYSA-N

>  <name>  (492) 
1-hydroxy-3-methoxy-10-methylacridin-9-one

>  <iupac_name>  (492) 
1-hydroxy-3-methoxy-10-methyl-acridin-9-one

>  <annotation_level>  (492) 
5

>  <total_atom_count>  (492) 
32

>  <heavy_atom_count>  (492) 
19

>  <molecular_weight>  (492) 
255.27

>  <exact_molecular_weight>  (492) 
255.08954

>  <molecular_formula>  (492) 
C15H13NO3

>  <alogp>  (492) 
2.41

>  <topological_polar_surface_area>  (492) 
51.46

>  <rotatable_bond_count>  (492) 
1

>  <hydrogen_bond_acceptors>  (492) 
4

>  <hydrogen_bond_donors>  (492) 
1

>  <hydrogen_bond_acceptors_lipinski>  (492) 
4

>  <hydrogen_bond_donors_lipinski>  (492) 
1

>  <lipinski_rule_of_five_violations>  (492) 
0

>  <aromatic_rings_count>  (492) 
3

>  <qed_drug_likeliness>  (492) 
0.68

>  <formal_charge>  (492) 
0

>  <fractioncsp3>  (492) 
0.13

>  <number_of_minimal_rings>  (492) 
3

>  <van_der_walls_volume>  (492) 
221.08

>  <contains_sugar>  (492) 
False

>  <contains_ring_sugars>  (492) 
False

>  <contains_linear_sugars>  (492) 
False

>  <murcko_framework>  (492) 
c1ccc2c(c1)Nc3ccccc3C2

>  <np_likeness>  (492) 
0.62

>  <chemical_class>  (492) 
Quinolines and derivatives

>  <chemical_sub_class>  (492) 
Benzoquinolines

>  <chemical_super_class>  (492) 
Organoheterocyclic compounds

>  <direct_parent_classification>  (492) 
Acridones

>  <np_classifier_pathway>  (492) 
Alkaloids

>  <np_classifier_superclass>  (492) 
Anthranilic acid alkaloids

>  <np_classifier_class>  (492) 
Acridone alkaloids

>  <np_classifier_is_glycoside>  (492) 
False

>  <organisms>  (492) 
Conchocarpus marginatus|Cystoseira caespitosa|Fagara macrophylla|Hypholoma capnoides|Lactarius deliciosus var. deterrimus|Rosa transmorrisonensis|Ruta graveolens|Zanthoxylum leprieurii

>  <collections>  (492) 
BIOFACQUIM|CMAUP (cCollective molecular activities of useful plants)|KNApSaCK|Latin America dataset|NPASS|NPCARE|NuBBEDB|Super Natural II|UNPD (Universal Natural Products Database)

>  <dois>  (492) 
10.1016/j.bmc.2010.03.040|10.1590/S0100-40422012001100006|10.3390/molecules23102693

>  <synonyms>  (492) 
NSC681019|1-Hydroxy-3-methoxy-10-methylacridone|13161-83-6|1-Hydroxy-3-methoxy-10-methyl-9(10H)-acridinone|1-HMMA cpd|SCHEMBL424353|CHEMBL1094824|CHEBI:173801|OCUBFJMZYYIVBO-UHFFFAOYSA-N|NCI60_028892|RD7-5040|1-Hydroxy-3-methoxy-10-methyl-10-hydroacridin-9-one|1-hydroxy-3-methoxy-10-methylacridin-9(10H)-one|N-methyl-1-hydroxy-3-methoxyacridone

>  <cas>  (492) 
13161-83-6

$$$$

     RDKit          2D

 14 15  0  0  0  0  0  0  0  0999 V2000
   -2.9500    2.8245    0.0000 C   0  0  0  0  0  0  0  0  0  0  0  0
   -1.4841    2.5062    0.0000 O   0  0  0  0  0  0  0  0  0  0  0  0
   -1.0269    1.0775    0.0000 C   0  0  0  0  0  0  0  0  0  0  0  0
   -2.0355   -0.0327    0.0000 C   0  0  0  0  0  0  0  0  0  0  0  0
   -1.5782   -1.4614    0.0000 C   0  0  0  0  0  0  0  0  0  0  0  0
   -2.5868   -2.5717    0.0000 O   0  0  0  0  0  0  0  0  0  0  0  0
   -0.1124   -1.7797    0.0000 N   0  0  0  0  0  0  0  0  0  0  0  0
    0.3449   -3.2083    0.0000 C   0  0  0  0  0  0  0  0  0  0  0  0
    0.8962   -0.6694    0.0000 C   0  0  0  0  0  0  0  0  0  0  0  0
    2.3621   -0.9877    0.0000 C   0  0  0  0  0  0  0  0  0  0  0  0
    3.3706    0.1226    0.0000 C   0  0  0  0  0  0  0  0  0  0  0  0
    2.9134    1.5512    0.0000 C   0  0  0  0  0  0  0  0  0  0  0  0
    1.4476    1.8695    0.0000 C   0  0  0  0  0  0  0  0  0  0  0  0
    0.4390    0.7592    0.0000 C   0  0  0  0  0  0  0  0  0  0  0  0
  1  2  1  0
  2  3  1  0
  3  4  2  0
  4  5  1  0
  5  6  2  0
  5  7  1  0
  7  8  1  0
  7  9  1  0
  9 10  2  0
 10 11  1  0
 11 12  2  0
 12 13  1  0
 13 14  2  0
 14  3  1  0
 14  9  1  0
M  END
>  <identifier>  (493) 
CNP0413350.0

>  <canonical_smiles>  (493) 
COC1=CC(=O)N(C)C2=CC=CC=C12

>  <standard_inchi>  (493) 
InChI=1S/C11H11NO2/c1-12-9-6-4-3-5-8(9)10(14-2)7-11(12)13/h3-7H,1-2H3

>  <standard_inchi_key>  (493) 
SPBLFONLHXBBQE-UHFFFAOYSA-N

>  <name>  (493) 
4-methoxy-1-methylquinolin-2-one

>  <iupac_name>  (493) 
4-methoxy-1-methyl-quinolin-2-one

>  <annotation_level>  (493) 
5

>  <total_atom_count>  (493) 
25

>  <heavy_atom_count>  (493) 
14

>  <molecular_weight>  (493) 
189.21

>  <exact_molecular_weight>  (493) 
189.07898

>  <molecular_formula>  (493) 
C11H11NO2

>  <alogp>  (493) 
1.55

>  <topological_polar_surface_area>  (493) 
31.23

>  <rotatable_bond_count>  (493) 
1

>  <hydrogen_bond_acceptors>  (493) 
3

>  <hydrogen_bond_donors>  (493) 
0

>  <hydrogen_bond_acceptors_lipinski>  (493) 
3

>  <hydrogen_bond_donors_lipinski>  (493) 
0

>  <lipinski_rule_of_five_violations>  (493) 
0

>  <aromatic_rings_count>  (493) 
2

>  <qed_drug_likeliness>  (493) 
0.68

>  <formal_charge>  (493) 
0

>  <fractioncsp3>  (493) 
0.18

>  <number_of_minimal_rings>  (493) 
2

>  <van_der_walls_volume>  (493) 
170.46

>  <contains_sugar>  (493) 
False

>  <contains_ring_sugars>  (493) 
False

>  <contains_linear_sugars>  (493) 
False

>  <murcko_framework>  (493) 
c1ccc2NCC=Cc2c1

>  <np_likeness>  (493) 
-0.36

>  <chemical_class>  (493) 
Quinolines and derivatives

>  <chemical_sub_class>  (493) 
Quinolones and derivatives

>  <chemical_super_class>  (493) 
Organoheterocyclic compounds

>  <direct_parent_classification>  (493) 
Hydroquinolones

>  <np_classifier_pathway>  (493) 
Alkaloids

>  <np_classifier_superclass>  (493) 
Tryptophan alkaloids

>  <np_classifier_class>  (493) 
Quinoline alkaloids

>  <np_classifier_is_glycoside>  (493) 
False

>  <organisms>  (493) 
Acronychia laurifolia|Adiscanthus fusciflorus|Agave deserti|Aglaia pyramidata|Alchornea cordifolia|Alexandrium excavatum|Alpinia officinarum|Amomum daniellii|Amomum reticulatum|Arachniodes mutica|Asclepias subulata|Ascodesmis sphaerospora|Atalantia wightii|Balanophora japonica|Calcarisporium thermophilum|Caralluma russeliana|Casimiroa edulis|Celastrus monospermus|Clausena lansium|Clausena vestita|Conium maculatum|Corydalis persica|Corynanthe pachyceras|Cota tinctoria|Cynoglossum amabile|Cystoseira caespitosa|Dalbergia monetaria|Dendrobates abditus|Drummondita hassellii|Dysidea villosa|Espeletiopsis purpurascens|Eutrochium purpureum|Flavoparmelia caperata|Flueggea microcarpa|Gentiana strictiflora|Glinus oppositifolius|Glycosmis pseudoracemosa|Grosvenoria rimbachii|Helianthus californicus|Helminthosporium victoriae|Hesperethusa crenulata|Hortonia floribunda|Hosta sieboldiana|Hygrophorus eburneus|Hypholoma capnoides|Imperata cylindrica|Inula grantioides|Inula salsoloides|Jacobaea cannabifolia|Jasione montana|Juniperus horizontalis|Jurinea maxima|Lactarius deliciosus var. deterrimus|Lactarius fuliginosus|Lactarius subpiperatus|Lathyrus tingitanus|Machilus odoratissima|Machilus zuihoensis|Morinda coreia|Mycetia nutans|Naja naja|Notechis scutatus|Notonia grandiflora|Ophiopholis aculeata|Parmelia zollingeri|Passiflora morifolia|Peucedanum oroselinum|Pilocarpus grandiflorus|Plakortis simplex|Plectosphaerella cucumerina|Plectranthus caninus|Plectranthus hereroensis|Polypodium aureum|Psiadia anchusifolia|Pyrenula japonica|Rauvolfia salicifolia|Rhizoplaca baranowii|Rosa transmorrisonensis|Ruta graveolens|Ruta montana|Salmonella enterica subsp. enterica serovar bovismorbificans|Schrebera swietenoides|Senecio gilliesi|Sideritis perfoliata|Solanum spirale|Sophora leachiana|Spiraea prunifolia|Streptomyces globisporus|Streptomyces griseocarneus|Streptomyces sulfonofaciens|Streptomyces tateyamensis|Strychnos spinosa|Takifugu rubripes|Talipariti tiliaceum|Tephrosia bidwilli|Tetradium glabrifolium|Thielavia terricola|Toddalia asiatica|Ursinia anthemoides|Vernonia lilacina|Xanthoria parietina|Zanthoxylum avicennae|Zanthoxylum chiloperone|Zanthoxylum simulans

>  <collections>  (493) 
ANPDB|Australian natural products|BIOFACQUIM|CMAUP (cCollective molecular activities of useful plants)|ETM (Ethiopian Traditional Medicine) DB|KNApSaCK|Latin America dataset|Mitishamba database|NANPDB (Natural Products from Northern African Sources)|NPASS|NuBBEDB|Phyto4Health|PubChem NPs|Super Natural II|TCMDB-Taiwan (Traditional Chinese Medicine database)|TCMID (Traditional Chinese Medicine Integrated Database)|TIPdb (database of Taiwan indigenous plants)|UNPD (Universal Natural Products Database)|VietHerb|ZINC NP

>  <dois>  (493) 
10.1016/0031-9422(80)83207-9|10.1016/0031-9422(92)80274-i|10.1016/S0031-9422(99)00486-0|10.1016/j.ejmech.2011.10.047|10.1021/np070594k|10.3390/molecules23102693

>  <synonyms>  (493) 
32262-18-3|4-methoxy-1-methyl-2(1H)-quinolinone|N-Methyl-4-methoxycarbostyril|2(1H)-Quinolinone| 4-methoxy-1-methyl-|4-Methoxy-1-methyl-2-quinolone|MLS000532185|SMR000137126|4-Methoxy-1-methylquinolin-2-one; 4-Methoxy-N-methyl-2-quinolone; N-Methyl-4-methoxy-2-quinolone|Opera_ID_952|Cambridge id 5192550|Oprea1_633116|CHEMBL402069|SCHEMBL11379787|DTXSID80186013|CHEBI:229016|SPBLFONLHXBBQE-UHFFFAOYSA-N|4-Methoxy-N-Methyl-quinol-2-one|Carbostyril| 4-methoxy-1-methyl-|HMS2473B12|4-methoxy-1-methyl-quinolin-2-one|AKOS006281157|FS-9480|NCGC00245725-01|DB-332412|1-Methyl-4-methoxy-2-quinolone|1-methyl-4-methoxy-2-quinolone| 4-Methoxy-N-methylquinolone| N-methyl-4-methoxy-2-quinolone

>  <cas>  (493) 
32262-18-3

$$$$

     RDKit          2D

 21 24  0  0  0  0  0  0  0  0999 V2000
    0.7490    2.4047    0.0000 C   0  0  0  0  0  0  0  0  0  0  0  0
    1.2317    0.9845    0.0000 N   0  0  0  0  0  0  0  0  0  0  0  0
    0.2431   -0.1437    0.0000 C   0  0  0  0  0  0  0  0  0  0  0  0
   -1.2282    0.1484    0.0000 C   0  0  0  0  0  0  0  0  0  0  0  0
   -1.7109    1.5686    0.0000 C   0  0  0  0  0  0  0  0  0  0  0  0
   -3.1822    1.8606    0.0000 C   0  0  0  0  0  0  0  0  0  0  0  0
   -4.1708    0.7325    0.0000 C   0  0  0  0  0  0  0  0  0  0  0  0
   -5.6706    0.7122    0.0000 O   0  0  0  0  0  0  0  0  0  0  0  0
   -6.1149   -0.7205    0.0000 C   0  0  0  0  0  0  0  0  0  0  0  0
   -4.8896   -1.5857    0.0000 O   0  0  0  0  0  0  0  0  0  0  0  0
   -3.6881   -0.6877    0.0000 C   0  0  0  0  0  0  0  0  0  0  0  0
   -2.2168   -0.9798    0.0000 C   0  0  0  0  0  0  0  0  0  0  0  0
    0.7258   -1.5639    0.0000 C   0  0  0  0  0  0  0  0  0  0  0  0
    2.1971   -1.8560    0.0000 C   0  0  0  0  0  0  0  0  0  0  0  0
    2.6798   -3.2762    0.0000 O   0  0  0  0  0  0  0  0  0  0  0  0
    3.1857   -0.7278    0.0000 C   0  0  0  0  0  0  0  0  0  0  0  0
    4.6570   -1.0199    0.0000 C   0  0  0  0  0  0  0  0  0  0  0  0
    5.6456    0.1083    0.0000 C   0  0  0  0  0  0  0  0  0  0  0  0
    5.1628    1.5285    0.0000 C   0  0  0  0  0  0  0  0  0  0  0  0
    3.6915    1.8206    0.0000 C   0  0  0  0  0  0  0  0  0  0  0  0
    2.7030    0.6924    0.0000 C   0  0  0  0  0  0  0  0  0  0  0  0
  1  2  1  0
  2  3  1  0
  3  4  1  0
  4  5  2  0
  5  6  1  0
  6  7  2  0
  7  8  1  0
  8  9  1  0
  9 10  1  0
 10 11  1  0
 11 12  2  0
  3 13  2  0
 13 14  1  0
 14 15  2  0
 14 16  1  0
 16 17  2  0
 17 18  1  0
 18 19  2  0
 19 20  1  0
 20 21  2  0
 21  2  1  0
 12  4  1  0
 21 16  1  0
 11  7  1  0
M  END
>  <identifier>  (494) 
CNP0332376.0

>  <canonical_smiles>  (494) 
CN1C(C2=CC=C3OCOC3=C2)=CC(=O)C2=CC=CC=C21

>  <standard_inchi>  (494) 
InChI=1S/C17H13NO3/c1-18-13-5-3-2-4-12(13)15(19)9-14(18)11-6-7-16-17(8-11)21-10-20-16/h2-9H,10H2,1H3

>  <standard_inchi_key>  (494) 
COBBNRKBTCBWQP-UHFFFAOYSA-N

>  <name>  (494) 
Graveoline

>  <iupac_name>  (494) 
2-(1,3-benzodioxol-5-yl)-1-methyl-quinolin-4-one

>  <annotation_level>  (494) 
5

>  <total_atom_count>  (494) 
34

>  <heavy_atom_count>  (494) 
21

>  <molecular_weight>  (494) 
279.3

>  <exact_molecular_weight>  (494) 
279.08954

>  <molecular_formula>  (494) 
C17H13NO3

>  <alogp>  (494) 
2.93

>  <topological_polar_surface_area>  (494) 
40.46

>  <rotatable_bond_count>  (494) 
1

>  <hydrogen_bond_acceptors>  (494) 
4

>  <hydrogen_bond_donors>  (494) 
0

>  <hydrogen_bond_acceptors_lipinski>  (494) 
4

>  <hydrogen_bond_donors_lipinski>  (494) 
0

>  <lipinski_rule_of_five_violations>  (494) 
0

>  <aromatic_rings_count>  (494) 
3

>  <qed_drug_likeliness>  (494) 
0.69

>  <formal_charge>  (494) 
0

>  <fractioncsp3>  (494) 
0.12

>  <number_of_minimal_rings>  (494) 
4

>  <van_der_walls_volume>  (494) 
241.09

>  <contains_sugar>  (494) 
False

>  <contains_ring_sugars>  (494) 
False

>  <contains_linear_sugars>  (494) 
False

>  <murcko_framework>  (494) 
O1c2ccc(cc2OC1)C3=CCc4ccccc4N3

>  <np_likeness>  (494) 
0.00

>  <chemical_class>  (494) 
Quinolines and derivatives

>  <chemical_sub_class>  (494) 
Quinolones and derivatives

>  <chemical_super_class>  (494) 
Organoheterocyclic compounds

>  <direct_parent_classification>  (494) 
Hydroquinolones

>  <np_classifier_pathway>  (494) 
Alkaloids

>  <np_classifier_superclass>  (494) 
Anthranilic acid alkaloids

>  <np_classifier_class>  (494) 
Quinoline alkaloids

>  <np_classifier_is_glycoside>  (494) 
False

>  <organisms>  (494) 
Apium graveolens|Evodia rutaecarpa|Haplophyllum dubium Eug.Kor.|Haplophyllum foliosum Vved.|Ruta bracteosa|Ruta chalepensis|Ruta graveolens|Ruta graveolens L.|Ruta graveolensis

>  <collections>  (494) 
BIOFACQUIM|CMAUP (cCollective molecular activities of useful plants)|ChEBI NPs|FooDB|GNPS (Global Natural Products Social Molecular Networking)|InterBioScreen Ltd|KNApSaCK|NPASS|NPEdia|Phyto4Health|PubChem NPs|Specs Natural Products|Super Natural II|TCMDB-Taiwan (Traditional Chinese Medicine database)|TCMID (Traditional Chinese Medicine Integrated Database)|TPPT (Toxic Plants–PhytoToxins)|UNPD (Universal Natural Products Database)|VietHerb

>  <dois>  (494) 
10.1002/9780470744307.gat218|10.1002/biuz.19840140514|10.1002/food.19880321030|10.1021/jf0259361|10.3390/molecules23102693

>  <synonyms>  (494) 
485-61-0|2-(benzod1|3dioxol-5-yl)-1-methylquinolin-4(1H)-one|Graveolin|2-(1|3-benzodioxol-5-yl)-1-methylquinolin-4-one|CHEBI:5541|Alkaloid from Ruta angustifolia plant|NSC603064|Foliosine|Rutamine|Prestwick_165|Prestwick0_000674|Graveoline (4-Chinolon)|Oprea1_746980|BSPBio_000767|MLS001048950|SPBio_002688|BPBio1_000845|CHEMBL1371756|SCHEMBL25422999|4(1H)-Quinolinone| 2-(1|3-benzodioxol-5-yl)-1-methyl-|DTXSID80326593|COBBNRKBTCBWQP-UHFFFAOYSA-N|HMS1570G09|HMS2097G09|HMS2268L04|STL565967|ZB1720|AKOS002141814|CCG-208356|SB71513|NCGC00016465-01|NCGC00179443-01|CAS-485-61-0|DS-19520|HY-12538|SMR000386974|DB-133809|CS-0011994|NS00094814|C75292|SR-01000737557|BRD-K92683369-001-03-6|Q27106801|1-Methyl-2-(3|4-methylenedioxyphenyl)-4(1H)-quinolinone|2-(1|3-Benzodioxol-5-yl)-1-methyl-4(1H)-quinolinone| 9CI|2-(1|3-Benzodioxol-5-yl)-1-methyl-4(1H)-quinolinone (graveoline)|2-(2H-1|3-benzodioxol-5-yl)-1-methyl-1|4-dihydroquinolin-4-one

>  <cas>  (494) 
485-61-0

$$$$

     RDKit          2D

 22 23  0  0  0  0  0  0  0  0999 V2000
    3.5427    3.2134    0.0000 C   0  0  0  0  0  0  0  0  0  0  0  0
    3.4113    1.7191    0.0000 C   0  0  0  0  0  0  0  0  0  0  0  0
    2.0516    1.0858    0.0000 C   0  0  0  0  0  0  0  0  0  0  0  0
    1.9202   -0.4084    0.0000 C   0  0  0  0  0  0  0  0  0  0  0  0
    0.5604   -1.0417    0.0000 C   0  0  0  0  0  0  0  0  0  0  0  0
   -0.6679   -0.1808    0.0000 C   0  0  0  0  0  0  0  0  0  0  0  0
   -2.0277   -0.8141    0.0000 C   0  0  0  0  0  0  0  0  0  0  0  0
   -3.2560    0.0468    0.0000 C   0  0  0  0  0  0  0  0  0  0  0  0
   -4.6158   -0.5865    0.0000 C   0  0  0  0  0  0  0  0  0  0  0  0
   -5.8441    0.2744    0.0000 C   0  0  0  0  0  0  0  0  0  0  0  0
   -7.2038   -0.3589    0.0000 C   0  0  0  0  0  0  0  0  0  0  0  0
   -8.4322    0.5020    0.0000 C   0  0  0  0  0  0  0  0  0  0  0  0
   -9.7919   -0.1313    0.0000 C   0  0  0  0  0  0  0  0  0  0  0  0
  -11.0203    0.7296    0.0000 C   0  0  0  0  0  0  0  0  0  0  0  0
    3.1485   -1.2693    0.0000 N   0  0  0  0  0  0  0  0  0  0  0  0
    3.0171   -2.7636    0.0000 C   0  0  0  0  0  0  0  0  0  0  0  0
    4.5082   -0.6360    0.0000 C   0  0  0  0  0  0  0  0  0  0  0  0
    5.7366   -1.4969    0.0000 C   0  0  0  0  0  0  0  0  0  0  0  0
    7.0963   -0.8636    0.0000 C   0  0  0  0  0  0  0  0  0  0  0  0
    7.2277    0.6306    0.0000 C   0  0  0  0  0  0  0  0  0  0  0  0
    5.9994    1.4915    0.0000 C   0  0  0  0  0  0  0  0  0  0  0  0
    4.6397    0.8582    0.0000 C   0  0  0  0  0  0  0  0  0  0  0  0
  1  2  2  0
  2  3  1  0
  3  4  2  0
  4  5  1  0
  5  6  1  0
  6  7  1  0
  7  8  1  0
  8  9  1  0
  9 10  1  0
 10 11  1  0
 11 12  1  0
 12 13  1  0
 13 14  1  0
  4 15  1  0
 15 16  1  0
 15 17  1  0
 17 18  2  0
 18 19  1  0
 19 20  2  0
 20 21  1  0
 21 22  2  0
 22  2  1  0
 22 17  1  0
M  END
>  <identifier>  (495) 
CNP0485608.0

>  <canonical_smiles>  (495) 
C=C1C=C(CCCCCCCCCC)N(C)C2=CC=CC=C12

>  <standard_inchi>  (495) 
InChI=1S/C21H31N/c1-4-5-6-7-8-9-10-11-14-19-17-18(2)20-15-12-13-16-21(20)22(19)3/h12-13,15-17H,2,4-11,14H2,1,3H3

>  <standard_inchi_key>  (495) 
ZBPKFWAMOSUKHU-UHFFFAOYSA-N

>  <name>  (495) 
2-decyl-1-methyl-4-methylene-1 4-dihydroquinoline

>  <iupac_name>  (495) 
2-decyl-1-methyl-4-methylene-quinoline

>  <annotation_level>  (495) 
5

>  <total_atom_count>  (495) 
53

>  <heavy_atom_count>  (495) 
22

>  <molecular_weight>  (495) 
297.49

>  <exact_molecular_weight>  (495) 
297.24565

>  <molecular_formula>  (495) 
C21H31N

>  <alogp>  (495) 
6.56

>  <topological_polar_surface_area>  (495) 
3.24

>  <rotatable_bond_count>  (495) 
9

>  <hydrogen_bond_acceptors>  (495) 
1

>  <hydrogen_bond_donors>  (495) 
0

>  <hydrogen_bond_acceptors_lipinski>  (495) 
1

>  <hydrogen_bond_donors_lipinski>  (495) 
0

>  <lipinski_rule_of_five_violations>  (495) 
1

>  <aromatic_rings_count>  (495) 
1

>  <qed_drug_likeliness>  (495) 
0.47

>  <formal_charge>  (495) 
0

>  <fractioncsp3>  (495) 
0.52

>  <number_of_minimal_rings>  (495) 
2

>  <van_der_walls_volume>  (495) 
320.70

>  <contains_sugar>  (495) 
False

>  <contains_ring_sugars>  (495) 
False

>  <contains_linear_sugars>  (495) 
False

>  <murcko_framework>  (495) 
c1ccc2c(c1)NC=CC2

>  <np_likeness>  (495) 
0.37

>  <chemical_class>  (495) 
Quinolines and derivatives

>  <chemical_sub_class>  (495) 
Quinolones and derivatives

>  <chemical_super_class>  (495) 
Organoheterocyclic compounds

>  <direct_parent_classification>  (495) 
Hydroquinolones

>  <np_classifier_pathway>  (495) 
Alkaloids

>  <np_classifier_superclass>  (495) 
Tryptophan alkaloids

>  <np_classifier_class>  (495) 
Simple indole alkaloids

>  <np_classifier_is_glycoside>  (495) 
False

>  <organisms>  (495) 
Ruta graveolens

>  <collections>  (495) 
BIOFACQUIM

>  <dois>  (495) 
10.3390/molecules23102693

>  <synonyms>  (495) 
2-decyl-1-methyl-4-methylene-1 4-dihydroquinoline

>  <cas>  (495) 
nan

$$$$

     RDKit          2D

 24 25  0  0  0  0  0  0  0  0999 V2000
  -12.2516    1.1374    0.0000 C   0  0  0  0  0  0  0  0  0  0  0  0
  -11.0754    0.2064    0.0000 C   0  0  0  0  0  0  0  0  0  0  0  0
   -9.6811    0.7596    0.0000 C   0  0  0  0  0  0  0  0  0  0  0  0
   -8.5049   -0.1714    0.0000 C   0  0  0  0  0  0  0  0  0  0  0  0
   -7.1106    0.3818    0.0000 C   0  0  0  0  0  0  0  0  0  0  0  0
   -5.9345   -0.5491    0.0000 C   0  0  0  0  0  0  0  0  0  0  0  0
   -4.5402    0.0040    0.0000 C   0  0  0  0  0  0  0  0  0  0  0  0
   -3.3640   -0.9269    0.0000 C   0  0  0  0  0  0  0  0  0  0  0  0
   -1.9697   -0.3738    0.0000 C   0  0  0  0  0  0  0  0  0  0  0  0
   -0.7935   -1.3047    0.0000 C   0  0  0  0  0  0  0  0  0  0  0  0
    0.6007   -0.7516    0.0000 C   0  0  0  0  0  0  0  0  0  0  0  0
    1.7769   -1.6825    0.0000 C   0  0  0  0  0  0  0  0  0  0  0  0
    3.1712   -1.1294    0.0000 C   0  0  0  0  0  0  0  0  0  0  0  0
    4.3474   -2.0603    0.0000 C   0  0  0  0  0  0  0  0  0  0  0  0
    5.7417   -1.5072    0.0000 C   0  0  0  0  0  0  0  0  0  0  0  0
    6.9178   -2.4381    0.0000 O   0  0  0  0  0  0  0  0  0  0  0  0
    5.9598   -0.0231    0.0000 C   0  0  0  0  0  0  0  0  0  0  0  0
    7.3541    0.5300    0.0000 C   0  0  0  0  0  0  0  0  0  0  0  0
    7.5722    2.0141    0.0000 C   0  0  0  0  0  0  0  0  0  0  0  0
    6.3960    2.9450    0.0000 C   0  0  0  0  0  0  0  0  0  0  0  0
    5.0017    2.3919    0.0000 C   0  0  0  0  0  0  0  0  0  0  0  0
    4.7836    0.9078    0.0000 C   0  0  0  0  0  0  0  0  0  0  0  0
    3.3893    0.3547    0.0000 N   0  0  0  0  0  0  0  0  0  0  0  0
    2.2131    1.2856    0.0000 C   0  0  0  0  0  0  0  0  0  0  0  0
  1  2  1  0
  2  3  1  0
  3  4  1  0
  4  5  1  0
  5  6  1  0
  6  7  1  0
  7  8  1  0
  8  9  1  0
  9 10  1  0
 10 11  1  0
 11 12  1  0
 12 13  1  0
 13 14  2  0
 14 15  1  0
 15 16  2  0
 15 17  1  0
 17 18  2  0
 18 19  1  0
 19 20  2  0
 20 21  1  0
 21 22  2  0
 22 23  1  0
 23 24  1  0
 23 13  1  0
 22 17  1  0
M  END
>  <identifier>  (496) 
CNP0279506.0

>  <canonical_smiles>  (496) 
CCCCCCCCCCCCC1=CC(=O)C2=CC=CC=C2N1C

>  <standard_inchi>  (496) 
InChI=1S/C22H33NO/c1-3-4-5-6-7-8-9-10-11-12-15-19-18-22(24)20-16-13-14-17-21(20)23(19)2/h13-14,16-18H,3-12,15H2,1-2H3

>  <standard_inchi_key>  (496) 
URTNWZJTIJSNON-UHFFFAOYSA-N

>  <name>  (496) 
nan

>  <iupac_name>  (496) 
2-dodecyl-1-methyl-quinolin-4-one

>  <annotation_level>  (496) 
5

>  <total_atom_count>  (496) 
57

>  <heavy_atom_count>  (496) 
24

>  <molecular_weight>  (496) 
327.51

>  <exact_molecular_weight>  (496) 
327.25621

>  <molecular_formula>  (496) 
C22H33NO

>  <alogp>  (496) 
6.00

>  <topological_polar_surface_area>  (496) 
22.00

>  <rotatable_bond_count>  (496) 
11

>  <hydrogen_bond_acceptors>  (496) 
2

>  <hydrogen_bond_donors>  (496) 
0

>  <hydrogen_bond_acceptors_lipinski>  (496) 
2

>  <hydrogen_bond_donors_lipinski>  (496) 
0

>  <lipinski_rule_of_five_violations>  (496) 
1

>  <aromatic_rings_count>  (496) 
2

>  <qed_drug_likeliness>  (496) 
0.46

>  <formal_charge>  (496) 
0

>  <fractioncsp3>  (496) 
0.59

>  <number_of_minimal_rings>  (496) 
2

>  <van_der_walls_volume>  (496) 
343.98

>  <contains_sugar>  (496) 
False

>  <contains_ring_sugars>  (496) 
False

>  <contains_linear_sugars>  (496) 
False

>  <murcko_framework>  (496) 
c1ccc2c(c1)NC=CC2

>  <np_likeness>  (496) 
0.33

>  <chemical_class>  (496) 
Quinolines and derivatives

>  <chemical_sub_class>  (496) 
Quinolones and derivatives

>  <chemical_super_class>  (496) 
Organoheterocyclic compounds

>  <direct_parent_classification>  (496) 
Hydroquinolones

>  <np_classifier_pathway>  (496) 
Alkaloids

>  <np_classifier_superclass>  (496) 
Tryptophan alkaloids

>  <np_classifier_class>  (496) 
Quinoline alkaloids

>  <np_classifier_is_glycoside>  (496) 
False

>  <organisms>  (496) 
Angelica sinensis|Euodia bodinieri|Euodia officinalis|Euodia ruticarpa|Evodia rutaecarpa|Ruta graveolens

>  <collections>  (496) 
BIOFACQUIM|CMAUP (cCollective molecular activities of useful plants)|NPASS|Super Natural II|TCMDB-Taiwan (Traditional Chinese Medicine database)|TCMID (Traditional Chinese Medicine Integrated Database)|UNPD (Universal Natural Products Database)|ZINC NP

>  <dois>  (496) 
10.3390/molecules23102693

>  <synonyms>  (496) 
2-dodecyl-1-methylquinolin-4(1H)-one

>  <cas>  (496) 
nan

$$$$

     RDKit          2D

 23 24  0  0  0  0  0  0  0  0999 V2000
  -11.6006    0.4877    0.0000 C   0  0  0  0  0  0  0  0  0  0  0  0
  -10.1956    1.0128    0.0000 C   0  0  0  0  0  0  0  0  0  0  0  0
   -9.0382    0.0586    0.0000 C   0  0  0  0  0  0  0  0  0  0  0  0
   -7.6332    0.5838    0.0000 C   0  0  0  0  0  0  0  0  0  0  0  0
   -6.4758   -0.3704    0.0000 C   0  0  0  0  0  0  0  0  0  0  0  0
   -5.0708    0.1547    0.0000 C   0  0  0  0  0  0  0  0  0  0  0  0
   -3.9134   -0.7995    0.0000 C   0  0  0  0  0  0  0  0  0  0  0  0
   -2.5084   -0.2743    0.0000 C   0  0  0  0  0  0  0  0  0  0  0  0
   -1.3510   -1.2285    0.0000 C   0  0  0  0  0  0  0  0  0  0  0  0
    0.0540   -0.7034    0.0000 C   0  0  0  0  0  0  0  0  0  0  0  0
    1.2114   -1.6576    0.0000 C   0  0  0  0  0  0  0  0  0  0  0  0
    2.6164   -1.1324    0.0000 C   0  0  0  0  0  0  0  0  0  0  0  0
    3.7738   -2.0866    0.0000 C   0  0  0  0  0  0  0  0  0  0  0  0
    5.1788   -1.5615    0.0000 C   0  0  0  0  0  0  0  0  0  0  0  0
    6.3362   -2.5157    0.0000 O   0  0  0  0  0  0  0  0  0  0  0  0
    5.4265   -0.0821    0.0000 C   0  0  0  0  0  0  0  0  0  0  0  0
    6.8316    0.4431    0.0000 C   0  0  0  0  0  0  0  0  0  0  0  0
    7.0793    1.9225    0.0000 C   0  0  0  0  0  0  0  0  0  0  0  0
    5.9220    2.8768    0.0000 C   0  0  0  0  0  0  0  0  0  0  0  0
    4.5169    2.3516    0.0000 C   0  0  0  0  0  0  0  0  0  0  0  0
    4.2692    0.8722    0.0000 C   0  0  0  0  0  0  0  0  0  0  0  0
    2.8641    0.3470    0.0000 N   0  0  0  0  0  0  0  0  0  0  0  0
    1.7068    1.3012    0.0000 C   0  0  0  0  0  0  0  0  0  0  0  0
  1  2  1  0
  2  3  1  0
  3  4  1  0
  4  5  1  0
  5  6  1  0
  6  7  1  0
  7  8  1  0
  8  9  1  0
  9 10  1  0
 10 11  1  0
 11 12  1  0
 12 13  2  0
 13 14  1  0
 14 15  2  0
 14 16  1  0
 16 17  2  0
 17 18  1  0
 18 19  2  0
 19 20  1  0
 20 21  2  0
 21 22  1  0
 22 23  1  0
 22 12  1  0
 21 16  1  0
M  END
>  <identifier>  (497) 
CNP0280521.0

>  <canonical_smiles>  (497) 
CCCCCCCCCCCC1=CC(=O)C2=CC=CC=C2N1C

>  <standard_inchi>  (497) 
InChI=1S/C21H31NO/c1-3-4-5-6-7-8-9-10-11-14-18-17-21(23)19-15-12-13-16-20(19)22(18)2/h12-13,15-17H,3-11,14H2,1-2H3

>  <standard_inchi_key>  (497) 
ZLIHBZFNMQLPOT-UHFFFAOYSA-N

>  <name>  (497) 
59443-02-6

>  <iupac_name>  (497) 
1-methyl-2-undecyl-quinolin-4-one

>  <annotation_level>  (497) 
5

>  <total_atom_count>  (497) 
54

>  <heavy_atom_count>  (497) 
23

>  <molecular_weight>  (497) 
313.49

>  <exact_molecular_weight>  (497) 
313.24056

>  <molecular_formula>  (497) 
C21H31NO

>  <alogp>  (497) 
5.61

>  <topological_polar_surface_area>  (497) 
22.00

>  <rotatable_bond_count>  (497) 
10

>  <hydrogen_bond_acceptors>  (497) 
2

>  <hydrogen_bond_donors>  (497) 
0

>  <hydrogen_bond_acceptors_lipinski>  (497) 
2

>  <hydrogen_bond_donors_lipinski>  (497) 
0

>  <lipinski_rule_of_five_violations>  (497) 
1

>  <aromatic_rings_count>  (497) 
2

>  <qed_drug_likeliness>  (497) 
0.52

>  <formal_charge>  (497) 
0

>  <fractioncsp3>  (497) 
0.57

>  <number_of_minimal_rings>  (497) 
2

>  <van_der_walls_volume>  (497) 
328.69

>  <contains_sugar>  (497) 
False

>  <contains_ring_sugars>  (497) 
False

>  <contains_linear_sugars>  (497) 
False

>  <murcko_framework>  (497) 
c1ccc2c(c1)NC=CC2

>  <np_likeness>  (497) 
0.34

>  <chemical_class>  (497) 
Quinolines and derivatives

>  <chemical_sub_class>  (497) 
Quinolones and derivatives

>  <chemical_super_class>  (497) 
Organoheterocyclic compounds

>  <direct_parent_classification>  (497) 
Hydroquinolones

>  <np_classifier_pathway>  (497) 
Alkaloids

>  <np_classifier_superclass>  (497) 
Tryptophan alkaloids

>  <np_classifier_class>  (497) 
Quinoline alkaloids

>  <np_classifier_is_glycoside>  (497) 
False

>  <organisms>  (497) 
Evodia rutaecarpa|Ruta graveolens

>  <collections>  (497) 
BIOFACQUIM|CMAUP (cCollective molecular activities of useful plants)|GNPS (Global Natural Products Social Molecular Networking)|NPASS|Super Natural II|TCMDB-Taiwan (Traditional Chinese Medicine database)|TCMID (Traditional Chinese Medicine Integrated Database)|UNPD (Universal Natural Products Database)|ZINC NP

>  <dois>  (497) 
10.3390/molecules23102693

>  <synonyms>  (497) 
1-Methyl-2-undecylquinolin-4(1H)-one|1-Methyl-2-undecyl-4(1H)-quinolone|4(1H)-Quinolinone| 1-methyl-2-undecyl-|1-Methyl-2-undecyl-1|4-dihydroquinoline-4-one|SCHEMBL5463807|DTXSID10415762|HY-N1638|AKOS025288051|FS-8767|DA-31697|CS-0017299|E88716

>  <cas>  (497) 
nan

$$$$

     RDKit          2D

 31 35  0  0  0  0  0  0  0  0999 V2000
    1.6972   -4.1385    0.0000 C   0  0  0  0  0  0  0  0  0  0  0  0
    2.9026   -3.2457    0.0000 O   0  0  0  0  0  0  0  0  0  0  0  0
    2.7320   -1.7554    0.0000 C   0  0  0  0  0  0  0  0  0  0  0  0
    1.3562   -1.1579    0.0000 C   0  0  0  0  0  0  0  0  0  0  0  0
    1.1857    0.3324    0.0000 C   0  0  0  0  0  0  0  0  0  0  0  0
   -0.1902    0.9298    0.0000 C   0  0  0  0  0  3  0  0  0  0  0  0
   -0.3607    2.4201    0.0000 C   0  0  0  0  0  3  0  0  0  0  0  0
   -1.7366    3.0176    0.0000 C   0  0  0  0  0  3  0  0  0  0  0  0
   -1.5935    4.5107    0.0000 C   0  0  0  0  0  0  0  0  0  0  0  0
   -0.1293    4.8361    0.0000 O   0  0  0  0  0  0  0  0  0  0  0  0
    0.6327    3.5440    0.0000 C   0  0  0  0  0  0  0  0  0  0  0  0
    2.1258    3.4010    0.0000 O   0  0  0  0  0  0  0  0  0  0  0  0
   -2.9420    2.1248    0.0000 C   0  0  0  0  0  0  0  0  0  0  0  0
   -2.7715    0.6345    0.0000 C   0  0  0  0  0  0  0  0  0  0  0  0
   -1.3956    0.0370    0.0000 C   0  0  0  0  0  0  0  0  0  0  0  0
   -1.2251   -1.4533    0.0000 C   0  0  0  0  0  0  0  0  0  0  0  0
   -2.4304   -2.3461    0.0000 C   0  0  0  0  0  0  0  0  0  0  0  0
   -2.5735   -3.8392    0.0000 O   0  0  0  0  0  0  0  0  0  0  0  0
   -4.0378   -4.1646    0.0000 C   0  0  0  0  0  0  0  0  0  0  0  0
   -4.7997   -2.8725    0.0000 O   0  0  0  0  0  0  0  0  0  0  0  0
   -3.8063   -1.7486    0.0000 C   0  0  0  0  0  0  0  0  0  0  0  0
   -3.9768   -0.2583    0.0000 C   0  0  0  0  0  0  0  0  0  0  0  0
   -5.3527    0.3392    0.0000 O   0  0  0  0  0  0  0  0  0  0  0  0
   -5.5232    1.8294    0.0000 C   0  0  0  0  0  0  0  0  0  0  0  0
    2.3910    1.2252    0.0000 C   0  0  0  0  0  0  0  0  0  0  0  0
    3.7669    0.6277    0.0000 C   0  0  0  0  0  0  0  0  0  0  0  0
    4.9723    1.5205    0.0000 O   0  0  0  0  0  0  0  0  0  0  0  0
    6.3481    0.9230    0.0000 C   0  0  0  0  0  0  0  0  0  0  0  0
    3.9374   -0.8626    0.0000 C   0  0  0  0  0  0  0  0  0  0  0  0
    5.3133   -1.4601    0.0000 O   0  0  0  0  0  0  0  0  0  0  0  0
    5.4838   -2.9503    0.0000 C   0  0  0  0  0  0  0  0  0  0  0  0
  1  2  1  0
  2  3  1  0
  3  4  2  0
  4  5  1  0
  5  6  1  0
  6  7  1  0
  7  8  1  0
  8  9  1  0
  9 10  1  0
 10 11  1  0
 11 12  2  0
  8 13  1  0
 13 14  1  0
 14 15  2  0
 15 16  1  0
 16 17  2  0
 17 18  1  0
 18 19  1  0
 19 20  1  0
 20 21  1  0
 21 22  2  0
 22 23  1  0
 23 24  1  0
  5 25  2  0
 25 26  1  0
 26 27  1  0
 27 28  1  0
 26 29  2  0
 29 30  1  0
 30 31  1  0
 29  3  1  0
 15  6  1  0
 21 17  1  0
 11  7  1  0
 22 14  1  0
M  RAD  3   6   2   7   2   8   2
M  END
>  <identifier>  (498) 
CNP0600051.0

>  <canonical_smiles>  (498) 
COC1=CC([C]2[C]3[C](COC3=O)CC3=C2C=C2OCOC2=C3OC)=CC(OC)=C1OC

>  <standard_inchi>  (498) 
InChI=1S/C23H21O8/c1-25-15-6-11(7-16(26-2)21(15)28-4)18-13-8-17-22(31-10-30-17)20(27-3)14(13)5-12-9-29-23(24)19(12)18/h6-8H,5,9-10H2,1-4H3

>  <standard_inchi_key>  (498) 
LKALZADLYXYNOK-UHFFFAOYSA-N

>  <name>  (498) 
beta-Peltatin A methyl ether

>  <iupac_name>  (498) 
4-methoxy-9-(3,4,5-trimethoxyphenyl)-5,6-dihydroisobenzofuro[5,6-f][1,3]benzodioxol-8-one

>  <annotation_level>  (498) 
5

>  <total_atom_count>  (498) 
52

>  <heavy_atom_count>  (498) 
31

>  <molecular_weight>  (498) 
425.41

>  <exact_molecular_weight>  (498) 
425.12364

>  <molecular_formula>  (498) 
C23H21O8

>  <alogp>  (498) 
2.68

>  <topological_polar_surface_area>  (498) 
81.68

>  <rotatable_bond_count>  (498) 
5

>  <hydrogen_bond_acceptors>  (498) 
8

>  <hydrogen_bond_donors>  (498) 
0

>  <hydrogen_bond_acceptors_lipinski>  (498) 
8

>  <hydrogen_bond_donors_lipinski>  (498) 
0

>  <lipinski_rule_of_five_violations>  (498) 
0

>  <aromatic_rings_count>  (498) 
2

>  <qed_drug_likeliness>  (498) 
0.68

>  <formal_charge>  (498) 
0

>  <fractioncsp3>  (498) 
0.30

>  <number_of_minimal_rings>  (498) 
5

>  <van_der_walls_volume>  (498) 
364.82

>  <contains_sugar>  (498) 
False

>  <contains_ring_sugars>  (498) 
False

>  <contains_linear_sugars>  (498) 
False

>  <murcko_framework>  (498) 
O1c2cc3c(cc2OC1)C(c4ccccc4)C5COCC5C3

>  <np_likeness>  (498) 
0.61

>  <chemical_class>  (498) 
Lignan lactones

>  <chemical_sub_class>  (498) 
Lignan lactones

>  <chemical_super_class>  (498) 
Lignans, neolignans and related compounds

>  <direct_parent_classification>  (498) 
Lignan lactones

>  <np_classifier_pathway>  (498) 
Shikimates and Phenylpropanoids

>  <np_classifier_superclass>  (498) 
Lignans

>  <np_classifier_class>  (498) 
Arylnaphthalene and aryltetralin lignans

>  <np_classifier_is_glycoside>  (498) 
False

>  <organisms>  (498) 
Bursera fagaroides

>  <collections>  (498) 
BIOFACQUIM

>  <dois>  (498) 
10.3390/molecules24010008

>  <synonyms>  (498) 
beta-Peltatin A methyl ether

>  <cas>  (498) 
nan

$$$$

     RDKit          2D

 29 33  0  0  0  0  0  0  0  0999 V2000
    5.3030   -3.7399    0.0000 C   0  0  0  0  0  0  0  0  0  0  0  0
    5.2786   -2.2401    0.0000 O   0  0  0  0  0  0  0  0  0  0  0  0
    3.9675   -1.5113    0.0000 C   0  0  0  0  0  0  0  0  0  0  0  0
    2.6809   -2.2823    0.0000 C   0  0  0  0  0  0  0  0  0  0  0  0
    1.3698   -1.5535    0.0000 C   0  0  0  0  0  0  0  0  0  0  0  0
    1.3454   -0.0537    0.0000 C   0  0  0  0  0  0  0  0  0  0  0  0
    0.0344    0.6751    0.0000 C   0  0  0  0  0  3  0  0  0  0  0  0
    0.0100    2.1749    0.0000 C   0  0  0  0  0  3  0  0  0  0  0  0
   -1.3010    2.9037    0.0000 C   0  0  0  0  0  3  0  0  0  0  0  0
   -1.0130    4.3758    0.0000 C   0  0  0  0  0  0  0  0  0  0  0  0
    0.4760    4.5568    0.0000 O   0  0  0  0  0  0  0  0  0  0  0  0
    1.1083    3.1965    0.0000 C   0  0  0  0  0  0  0  0  0  0  0  0
    2.5804    2.9086    0.0000 O   0  0  0  0  0  0  0  0  0  0  0  0
   -2.5877    2.1327    0.0000 C   0  0  0  0  0  0  0  0  0  0  0  0
   -2.5633    0.6329    0.0000 C   0  0  0  0  0  0  0  0  0  0  0  0
   -1.2523   -0.0959    0.0000 C   0  0  0  0  0  0  0  0  0  0  0  0
   -1.2279   -1.5957    0.0000 C   0  0  0  0  0  0  0  0  0  0  0  0
   -2.5146   -2.3667    0.0000 C   0  0  0  0  0  0  0  0  0  0  0  0
   -2.8026   -3.8388    0.0000 O   0  0  0  0  0  0  0  0  0  0  0  0
   -4.2916   -4.0198    0.0000 C   0  0  0  0  0  0  0  0  0  0  0  0
   -4.9239   -2.6596    0.0000 O   0  0  0  0  0  0  0  0  0  0  0  0
   -3.8257   -1.6379    0.0000 C   0  0  0  0  0  0  0  0  0  0  0  0
   -3.8500   -0.1381    0.0000 C   0  0  0  0  0  0  0  0  0  0  0  0
   -5.1611    0.5907    0.0000 O   0  0  0  0  0  0  0  0  0  0  0  0
   -5.1854    2.0905    0.0000 C   0  0  0  0  0  0  0  0  0  0  0  0
    2.6321    0.7173    0.0000 C   0  0  0  0  0  0  0  0  0  0  0  0
    3.9432   -0.0115    0.0000 C   0  0  0  0  0  0  0  0  0  0  0  0
    5.2299    0.7595    0.0000 O   0  0  0  0  0  0  0  0  0  0  0  0
    6.5409    0.0307    0.0000 C   0  0  0  0  0  0  0  0  0  0  0  0
  1  2  1  0
  2  3  1  0
  3  4  2  0
  4  5  1  0
  5  6  2  0
  6  7  1  0
  7  8  1  0
  8  9  1  0
  9 10  1  0
 10 11  1  0
 11 12  1  0
 12 13  2  0
  9 14  1  0
 14 15  1  0
 15 16  2  0
 16 17  1  0
 17 18  2  0
 18 19  1  0
 19 20  1  0
 20 21  1  0
 21 22  1  0
 22 23  2  0
 23 24  1  0
 24 25  1  0
  6 26  1  0
 26 27  2  0
 27 28  1  0
 28 29  1  0
 27  3  1  0
 16  7  1  0
 22 18  1  0
 12  8  1  0
 23 15  1  0
M  RAD  3   7   2   8   2   9   2
M  END
>  <identifier>  (499) 
CNP0511806.0

>  <canonical_smiles>  (499) 
COC1=CC=C([C]2[C]3[C](COC3=O)CC3=C2C=C2OCOC2=C3OC)C=C1OC

>  <standard_inchi>  (499) 
InChI=1S/C22H19O7/c1-24-15-5-4-11(7-16(15)25-2)18-13-8-17-21(29-10-28-17)20(26-3)14(13)6-12-9-27-22(23)19(12)18/h4-5,7-8H,6,9-10H2,1-3H3

>  <standard_inchi_key>  (499) 
LMEDJLTXXQPZIU-UHFFFAOYSA-N

>  <name>  (499) 
5? -desmethoxy-?-peltatin-A-methylether

>  <iupac_name>  (499) 
9-(3,4-dimethoxyphenyl)-4-methoxy-5,6-dihydroisobenzofuro[5,6-f][1,3]benzodioxol-8-one

>  <annotation_level>  (499) 
5

>  <total_atom_count>  (499) 
48

>  <heavy_atom_count>  (499) 
29

>  <molecular_weight>  (499) 
395.39

>  <exact_molecular_weight>  (499) 
395.11308

>  <molecular_formula>  (499) 
C22H19O7

>  <alogp>  (499) 
2.67

>  <topological_polar_surface_area>  (499) 
72.45

>  <rotatable_bond_count>  (499) 
4

>  <hydrogen_bond_acceptors>  (499) 
7

>  <hydrogen_bond_donors>  (499) 
0

>  <hydrogen_bond_acceptors_lipinski>  (499) 
7

>  <hydrogen_bond_donors_lipinski>  (499) 
0

>  <lipinski_rule_of_five_violations>  (499) 
0

>  <aromatic_rings_count>  (499) 
2

>  <qed_drug_likeliness>  (499) 
0.74

>  <formal_charge>  (499) 
0

>  <fractioncsp3>  (499) 
0.27

>  <number_of_minimal_rings>  (499) 
5

>  <van_der_walls_volume>  (499) 
338.85

>  <contains_sugar>  (499) 
False

>  <contains_ring_sugars>  (499) 
False

>  <contains_linear_sugars>  (499) 
False

>  <murcko_framework>  (499) 
O1c2cc3c(cc2OC1)C(c4ccccc4)C5COCC5C3

>  <np_likeness>  (499) 
0.59

>  <chemical_class>  (499) 
Lignan lactones

>  <chemical_sub_class>  (499) 
Lignan lactones

>  <chemical_super_class>  (499) 
Lignans, neolignans and related compounds

>  <direct_parent_classification>  (499) 
Lignan lactones

>  <np_classifier_pathway>  (499) 
Alkaloids

>  <np_classifier_superclass>  (499) 
nan

>  <np_classifier_class>  (499) 
nan

>  <np_classifier_is_glycoside>  (499) 
False

>  <organisms>  (499) 
Bursera fagaroides

>  <collections>  (499) 
BIOFACQUIM

>  <dois>  (499) 
10.3390/molecules24010008

>  <synonyms>  (499) 
5? -desmethoxy-?-peltatin-A-methylether

>  <cas>  (499) 
nan

$$$$

     RDKit          2D

 29 33  0  0  0  0  0  0  0  0999 V2000
    0.8112   -4.1957    0.0000 C   0  0  0  0  0  0  0  0  0  0  0  0
    2.1174   -3.4583    0.0000 O   0  0  0  0  0  0  0  0  0  0  0  0
    2.1319   -1.9583    0.0000 C   0  0  0  0  0  0  0  0  0  0  0  0
    0.8401   -1.1958    0.0000 C   0  0  0  0  0  0  0  0  0  0  0  0
    0.8546    0.3041    0.0000 C   0  0  0  0  0  0  0  0  0  0  0  0
   -0.4371    1.0666    0.0000 C   0  0  0  0  0  3  0  0  0  0  0  0
   -0.4226    2.5666    0.0000 C   0  0  0  0  0  3  0  0  0  0  0  0
   -1.7144    3.3291    0.0000 C   0  0  0  0  0  3  0  0  0  0  0  0
   -1.3884    4.7932    0.0000 C   0  0  0  0  0  0  0  0  0  0  0  0
    0.1049    4.9356    0.0000 O   0  0  0  0  0  0  0  0  0  0  0  0
    0.7017    3.5594    0.0000 C   0  0  0  0  0  0  0  0  0  0  0  0
    2.1659    3.2334    0.0000 O   0  0  0  0  0  0  0  0  0  0  0  0
   -3.0206    2.5916    0.0000 C   0  0  0  0  0  0  0  0  0  0  0  0
   -3.0351    1.0917    0.0000 C   0  0  0  0  0  0  0  0  0  0  0  0
   -4.3413    0.3543    0.0000 C   0  0  0  0  0  0  0  0  0  0  0  0
   -4.3558   -1.1457    0.0000 C   0  0  0  0  0  0  0  0  0  0  0  0
   -3.0640   -1.9082    0.0000 C   0  0  0  0  0  0  0  0  0  0  0  0
   -1.7578   -1.1707    0.0000 C   0  0  0  0  0  0  0  0  0  0  0  0
   -1.7433    0.3292    0.0000 C   0  0  0  0  0  0  0  0  0  0  0  0
   -3.3900   -3.3723    0.0000 O   0  0  0  0  0  0  0  0  0  0  0  0
   -4.8833   -3.5147    0.0000 C   0  0  0  0  0  0  0  0  0  0  0  0
   -5.4801   -2.1385    0.0000 O   0  0  0  0  0  0  0  0  0  0  0  0
    2.1608    1.0415    0.0000 C   0  0  0  0  0  0  0  0  0  0  0  0
    3.4526    0.2790    0.0000 C   0  0  0  0  0  0  0  0  0  0  0  0
    4.7588    1.0165    0.0000 O   0  0  0  0  0  0  0  0  0  0  0  0
    6.0505    0.2540    0.0000 C   0  0  0  0  0  0  0  0  0  0  0  0
    3.4381   -1.2209    0.0000 C   0  0  0  0  0  0  0  0  0  0  0  0
    4.7298   -1.9834    0.0000 O   0  0  0  0  0  0  0  0  0  0  0  0
    4.7154   -3.4833    0.0000 C   0  0  0  0  0  0  0  0  0  0  0  0
  1  2  1  0
  2  3  1  0
  3  4  2  0
  4  5  1  0
  5  6  1  0
  6  7  1  0
  7  8  1  0
  8  9  1  0
  9 10  1  0
 10 11  1  0
 11 12  2  0
  8 13  1  0
 13 14  1  0
 14 15  2  0
 15 16  1  0
 16 17  2  0
 17 18  1  0
 18 19  2  0
 17 20  1  0
 20 21  1  0
 21 22  1  0
  5 23  2  0
 23 24  1  0
 24 25  1  0
 25 26  1  0
 24 27  2  0
 27 28  1  0
 28 29  1  0
 27  3  1  0
 19  6  1  0
 11  7  1  0
 19 14  1  0
 22 16  1  0
M  RAD  3   6   2   7   2   8   2
M  END
>  <identifier>  (500) 
CNP0589966.0

>  <canonical_smiles>  (500) 
COC1=CC([C]2[C]3[C](COC3=O)CC3=CC4=C(C=C23)OCO4)=CC(OC)=C1OC

>  <standard_inchi>  (500) 
InChI=1S/C22H19O7/c1-24-17-6-12(7-18(25-2)21(17)26-3)19-14-8-16-15(28-10-29-16)5-11(14)4-13-9-27-22(23)20(13)19/h5-8H,4,9-10H2,1-3H3

>  <standard_inchi_key>  (500) 
RSQHYDRYCKDMRM-UHFFFAOYSA-N

>  <name>  (500) 
desoxypodophyllotoxin

>  <iupac_name>  (500) 
5-(3,4,5-trimethoxyphenyl)-8,9-dihydroisobenzofuro[6,5-f][1,3]benzodioxol-6-one

>  <annotation_level>  (500) 
5

>  <total_atom_count>  (500) 
48

>  <heavy_atom_count>  (500) 
29

>  <molecular_weight>  (500) 
395.39

>  <exact_molecular_weight>  (500) 
395.11308

>  <molecular_formula>  (500) 
C22H19O7

>  <alogp>  (500) 
2.67

>  <topological_polar_surface_area>  (500) 
72.45

>  <rotatable_bond_count>  (500) 
4

>  <hydrogen_bond_acceptors>  (500) 
7

>  <hydrogen_bond_donors>  (500) 
0

>  <hydrogen_bond_acceptors_lipinski>  (500) 
7

>  <hydrogen_bond_donors_lipinski>  (500) 
0

>  <lipinski_rule_of_five_violations>  (500) 
0

>  <aromatic_rings_count>  (500) 
2

>  <qed_drug_likeliness>  (500) 
0.74

>  <formal_charge>  (500) 
0

>  <fractioncsp3>  (500) 
0.27

>  <number_of_minimal_rings>  (500) 
5

>  <van_der_walls_volume>  (500) 
339.58

>  <contains_sugar>  (500) 
False

>  <contains_ring_sugars>  (500) 
False

>  <contains_linear_sugars>  (500) 
False

>  <murcko_framework>  (500) 
O1c2cc3c(cc2OC1)C(c4ccccc4)C5COCC5C3

>  <np_likeness>  (500) 
0.42

>  <chemical_class>  (500) 
Lignan lactones

>  <chemical_sub_class>  (500) 
Lignan lactones

>  <chemical_super_class>  (500) 
Lignans, neolignans and related compounds

>  <direct_parent_classification>  (500) 
Lignan lactones

>  <np_classifier_pathway>  (500) 
Shikimates and Phenylpropanoids

>  <np_classifier_superclass>  (500) 
Lignans

>  <np_classifier_class>  (500) 
Arylnaphthalene and aryltetralin lignans

>  <np_classifier_is_glycoside>  (500) 
False

>  <organisms>  (500) 
Bursera fagaroides

>  <collections>  (500) 
BIOFACQUIM

>  <dois>  (500) 
10.3390/molecules24010008

>  <synonyms>  (500) 
desoxypodophyllotoxin

>  <cas>  (500) 
nan

$$$$

     RDKit          2D

 27 30  0  0  0  0  0  0  0  0999 V2000
    5.0281   -4.0377    0.0000 C   0  0  0  0  0  0  0  0  0  0  0  0
    5.0602   -2.5380    0.0000 O   0  0  0  0  0  0  0  0  0  0  0  0
    3.7775   -1.7604    0.0000 C   0  0  0  0  0  0  0  0  0  0  0  0
    2.4627   -2.4824    0.0000 C   0  0  0  0  0  0  0  0  0  0  0  0
    1.1800   -1.7048    0.0000 C   0  0  0  0  0  0  0  0  0  0  0  0
    1.2121   -0.2052    0.0000 C   0  0  0  0  0  0  0  0  0  0  0  0
   -0.0706    0.5725    0.0000 C   0  0  0  0  0  0  0  0  0  0  0  0
   -0.0385    2.0721    0.0000 C   0  0  0  0  0  3  0  0  0  0  0  0
   -1.2329    2.9796    0.0000 C   0  0  0  0  0  3  0  0  0  0  0  0
   -2.6690    2.5467    0.0000 C   0  0  0  0  0  0  0  0  0  0  0  0
   -3.0122    1.0865    0.0000 C   0  0  0  0  0  0  0  0  0  0  0  0
   -1.9193    0.0591    0.0000 C   0  0  0  0  0  0  0  0  0  0  0  0
   -2.2624   -1.4011    0.0000 C   0  0  0  0  0  0  0  0  0  0  0  0
   -3.6986   -1.8340    0.0000 C   0  0  0  0  0  0  0  0  0  0  0  0
   -4.3379   -3.1909    0.0000 O   0  0  0  0  0  0  0  0  0  0  0  0
   -5.8260   -3.0022    0.0000 C   0  0  0  0  0  0  0  0  0  0  0  0
   -6.1064   -1.5287    0.0000 O   0  0  0  0  0  0  0  0  0  0  0  0
   -4.7916   -0.8066    0.0000 C   0  0  0  0  0  0  0  0  0  0  0  0
   -4.4484    0.6536    0.0000 C   0  0  0  0  0  0  0  0  0  0  0  0
   -0.7389    4.3959    0.0000 C   0  0  0  0  0  0  0  0  0  0  0  0
    0.7607    4.3638    0.0000 O   0  0  0  0  0  0  0  0  0  0  0  0
    1.1936    2.9276    0.0000 C   0  0  0  0  0  0  0  0  0  0  0  0
    2.6100    2.4337    0.0000 O   0  0  0  0  0  0  0  0  0  0  0  0
    2.5269    0.5169    0.0000 C   0  0  0  0  0  0  0  0  0  0  0  0
    3.8096   -0.2608    0.0000 C   0  0  0  0  0  0  0  0  0  0  0  0
    5.1244    0.4613    0.0000 O   0  0  0  0  0  0  0  0  0  0  0  0
    6.4071   -0.3164    0.0000 C   0  0  0  0  0  0  0  0  0  0  0  0
  1  2  1  0
  2  3  1  0
  3  4  2  0
  4  5  1  0
  5  6  2  0
  6  7  1  0
  7  8  1  0
  8  9  1  0
  9 10  1  0
 10 11  1  0
 11 12  2  0
 12 13  1  0
 13 14  2  0
 14 15  1  0
 15 16  1  0
 16 17  1  0
 17 18  1  0
 18 19  2  0
  9 20  1  0
 20 21  1  0
 21 22  1  0
 22 23  2  0
  6 24  1  0
 24 25  2  0
 25 26  1  0
 26 27  1  0
 25  3  1  0
 22  8  1  0
 19 11  1  0
 18 14  1  0
M  RAD  2   8   2   9   2
M  END
>  <identifier>  (501) 
CNP0539971.0

>  <canonical_smiles>  (501) 
COC1=CC=C(C[C]2[C](CC3=CC=C4OCOC4=C3)COC2=O)C=C1OC

>  <standard_inchi>  (501) 
InChI=1S/C21H20O6/c1-23-17-5-3-14(9-19(17)24-2)8-16-15(11-25-21(16)22)7-13-4-6-18-20(10-13)27-12-26-18/h3-6,9-10H,7-8,11-12H2,1-2H3

>  <standard_inchi_key>  (501) 
ZNFNVULJMPXOPE-UHFFFAOYSA-N

>  <name>  (501) 
desmethoxy-yatein

>  <iupac_name>  (501) 
3-(1,3-benzodioxol-5-ylmethyl)-4-[(3,4-dimethoxyphenyl)methyl]-2~{H}-furan-5-one

>  <annotation_level>  (501) 
5

>  <total_atom_count>  (501) 
47

>  <heavy_atom_count>  (501) 
27

>  <molecular_weight>  (501) 
368.39

>  <exact_molecular_weight>  (501) 
368.12599

>  <molecular_formula>  (501) 
C21H20O6

>  <alogp>  (501) 
2.92

>  <topological_polar_surface_area>  (501) 
63.22

>  <rotatable_bond_count>  (501) 
6

>  <hydrogen_bond_acceptors>  (501) 
6

>  <hydrogen_bond_donors>  (501) 
0

>  <hydrogen_bond_acceptors_lipinski>  (501) 
6

>  <hydrogen_bond_donors_lipinski>  (501) 
0

>  <lipinski_rule_of_five_violations>  (501) 
0

>  <aromatic_rings_count>  (501) 
2

>  <qed_drug_likeliness>  (501) 
0.73

>  <formal_charge>  (501) 
0

>  <fractioncsp3>  (501) 
0.29

>  <number_of_minimal_rings>  (501) 
4

>  <van_der_walls_volume>  (501) 
326.96

>  <contains_sugar>  (501) 
False

>  <contains_ring_sugars>  (501) 
False

>  <contains_linear_sugars>  (501) 
False

>  <murcko_framework>  (501) 
O1c2ccc(cc2OC1)CC3COCC3Cc4ccccc4

>  <np_likeness>  (501) 
0.20

>  <chemical_class>  (501) 
Furanoid lignans

>  <chemical_sub_class>  (501) 
Tetrahydrofuran lignans

>  <chemical_super_class>  (501) 
Lignans, neolignans and related compounds

>  <direct_parent_classification>  (501) 
Dibenzylbutyrolactone lignans

>  <np_classifier_pathway>  (501) 
nan

>  <np_classifier_superclass>  (501) 
nan

>  <np_classifier_class>  (501) 
nan

>  <np_classifier_is_glycoside>  (501) 
False

>  <organisms>  (501) 
Bursera fagaroides

>  <collections>  (501) 
BIOFACQUIM

>  <dois>  (501) 
10.3390/molecules24010008

>  <synonyms>  (501) 
desmethoxy-yatein

>  <cas>  (501) 
nan

$$$$

     RDKit          2D

 28 33  0  0  0  0  0  0  0  0999 V2000
   -6.1787   -0.6790    0.0000 C   0  0  0  0  0  0  0  0  0  0  0  0
   -4.7955   -1.2593    0.0000 O   0  0  0  0  0  0  0  0  0  0  0  0
   -3.6013   -0.3516    0.0000 C   0  0  0  0  0  0  0  0  0  0  0  0
   -2.2181   -0.9319    0.0000 C   0  0  0  0  0  0  0  0  0  0  0  0
   -2.0291   -2.4199    0.0000 C   0  0  0  0  0  0  0  0  0  0  0  0
   -0.6459   -3.0002    0.0000 C   0  0  0  0  0  3  0  0  0  0  0  0
   -0.1516   -4.4165    0.0000 C   0  0  0  0  0  0  0  0  0  0  0  0
    1.3480   -4.3840    0.0000 O   0  0  0  0  0  0  0  0  0  0  0  0
    1.7806   -2.9477    0.0000 C   0  0  0  0  0  0  0  0  0  0  0  0
    3.1968   -2.4535    0.0000 O   0  0  0  0  0  0  0  0  0  0  0  0
    0.5482   -2.0925    0.0000 C   0  0  0  0  0  3  0  0  0  0  0  0
    0.3592   -0.6045    0.0000 C   0  0  0  0  0  3  0  0  0  0  0  0
    1.5534    0.3032    0.0000 C   0  0  0  0  0  0  0  0  0  0  0  0
    1.3644    1.7913    0.0000 C   0  0  0  0  0  0  0  0  0  0  0  0
    2.5585    2.6990    0.0000 C   0  0  0  0  0  0  0  0  0  0  0  0
    3.9417    2.1187    0.0000 C   0  0  0  0  0  0  0  0  0  0  0  0
    5.2985    2.7583    0.0000 O   0  0  0  0  0  0  0  0  0  0  0  0
    6.3261    1.6655    0.0000 C   0  0  0  0  0  0  0  0  0  0  0  0
    5.6044    0.3506    0.0000 O   0  0  0  0  0  0  0  0  0  0  0  0
    4.1308    0.6306    0.0000 C   0  0  0  0  0  0  0  0  0  0  0  0
    2.9366   -0.2771    0.0000 C   0  0  0  0  0  0  0  0  0  0  0  0
   -1.0240   -0.0242    0.0000 C   0  0  0  0  0  0  0  0  0  0  0  0
   -1.2130    1.4639    0.0000 C   0  0  0  0  0  0  0  0  0  0  0  0
   -2.5962    2.0442    0.0000 C   0  0  0  0  0  0  0  0  0  0  0  0
   -3.7904    1.1365    0.0000 C   0  0  0  0  0  0  0  0  0  0  0  0
   -5.0227    1.9917    0.0000 O   0  0  0  0  0  0  0  0  0  0  0  0
   -4.5901    3.4280    0.0000 C   0  0  0  0  0  0  0  0  0  0  0  0
   -3.0905    3.4604    0.0000 O   0  0  0  0  0  0  0  0  0  0  0  0
  1  2  1  0
  2  3  1  0
  3  4  2  0
  4  5  1  0
  5  6  1  0
  6  7  1  0
  7  8  1  0
  8  9  1  0
  9 10  2  0
  9 11  1  0
 11 12  1  0
 12 13  1  0
 13 14  2  0
 14 15  1  0
 15 16  2  0
 16 17  1  0
 17 18  1  0
 18 19  1  0
 19 20  1  0
 20 21  2  0
 12 22  1  0
 22 23  2  0
 23 24  1  0
 24 25  2  0
 25 26  1  0
 26 27  1  0
 27 28  1  0
 25  3  1  0
 22  4  1  0
 28 24  1  0
 11  6  1  0
 21 13  1  0
 20 16  1  0
M  RAD  3   6   2  11   2  12   2
M  END
>  <identifier>  (502) 
CNP0574833.0

>  <canonical_smiles>  (502) 
COC1=C2C[C]3COC(=O)[C]3[C](C3=CC=C4OCOC4=C3)C2=CC2=C1OCO2

>  <standard_inchi>  (502) 
InChI=1S/C21H15O7/c1-23-19-13-4-11-7-24-21(22)18(11)17(12(13)6-16-20(19)28-9-27-16)10-2-3-14-15(5-10)26-8-25-14/h2-3,5-6H,4,7-9H2,1H3

>  <standard_inchi_key>  (502) 
NBPUSYZVLXEILD-UHFFFAOYSA-N

>  <name>  (502) 
burseranin

>  <iupac_name>  (502) 
9-(1,3-benzodioxol-5-yl)-4-methoxy-5,6-dihydroisobenzofuro[5,6-f][1,3]benzodioxol-8-one

>  <annotation_level>  (502) 
5

>  <total_atom_count>  (502) 
43

>  <heavy_atom_count>  (502) 
28

>  <molecular_weight>  (502) 
379.34

>  <exact_molecular_weight>  (502) 
379.08178

>  <molecular_formula>  (502) 
C21H15O7

>  <alogp>  (502) 
2.39

>  <topological_polar_surface_area>  (502) 
72.45

>  <rotatable_bond_count>  (502) 
2

>  <hydrogen_bond_acceptors>  (502) 
7

>  <hydrogen_bond_donors>  (502) 
0

>  <hydrogen_bond_acceptors_lipinski>  (502) 
7

>  <hydrogen_bond_donors_lipinski>  (502) 
0

>  <lipinski_rule_of_five_violations>  (502) 
0

>  <aromatic_rings_count>  (502) 
2

>  <qed_drug_likeliness>  (502) 
0.74

>  <formal_charge>  (502) 
0

>  <fractioncsp3>  (502) 
0.24

>  <number_of_minimal_rings>  (502) 
6

>  <van_der_walls_volume>  (502) 
311.38

>  <contains_sugar>  (502) 
False

>  <contains_ring_sugars>  (502) 
False

>  <contains_linear_sugars>  (502) 
False

>  <murcko_framework>  (502) 
O1c2ccc(cc2OC1)C3c4cc5OCOc5cc4CC6COCC36

>  <np_likeness>  (502) 
0.60

>  <chemical_class>  (502) 
Lignan lactones

>  <chemical_sub_class>  (502) 
Lignan lactones

>  <chemical_super_class>  (502) 
Lignans, neolignans and related compounds

>  <direct_parent_classification>  (502) 
Lignan lactones

>  <np_classifier_pathway>  (502) 
Shikimates and Phenylpropanoids

>  <np_classifier_superclass>  (502) 
nan

>  <np_classifier_class>  (502) 
nan

>  <np_classifier_is_glycoside>  (502) 
False

>  <organisms>  (502) 
Bursera fagaroides

>  <collections>  (502) 
BIOFACQUIM

>  <dois>  (502) 
10.3390/molecules24010008

>  <synonyms>  (502) 
burseranin

>  <cas>  (502) 
nan

$$$$

     RDKit          2D

 30 34  0  0  0  0  0  0  0  0999 V2000
    1.4770   -4.1575    0.0000 C   0  0  0  0  0  0  0  0  0  0  0  0
    2.6827   -3.2652    0.0000 O   0  0  0  0  0  0  0  0  0  0  0  0
    2.5127   -1.7748    0.0000 C   0  0  0  0  0  0  0  0  0  0  0  0
    1.1371   -1.1768    0.0000 C   0  0  0  0  0  0  0  0  0  0  0  0
    0.9672    0.3135    0.0000 C   0  0  0  0  0  0  0  0  0  0  0  0
   -0.4085    0.9115    0.0000 C   0  0  0  0  0  0  0  0  0  0  0  0
   -0.5784    2.4019    0.0000 C   0  0  0  0  0  0  0  0  0  0  0  0
   -1.9540    2.9999    0.0000 C   0  0  0  0  0  3  0  0  0  0  0  0
   -1.8104    4.4930    0.0000 C   0  0  0  0  0  0  0  0  0  0  0  0
   -0.3460    4.8178    0.0000 O   0  0  0  0  0  0  0  0  0  0  0  0
    0.4154    3.5254    0.0000 C   0  0  0  0  0  0  0  0  0  0  0  0
    1.9085    3.3818    0.0000 O   0  0  0  0  0  0  0  0  0  0  0  0
   -3.1598    2.1075    0.0000 C   0  0  0  0  0  3  0  0  0  0  0  0
   -4.5354    2.7055    0.0000 O   0  0  0  0  0  0  0  0  0  0  0  0
   -2.9898    0.6172    0.0000 C   0  0  0  0  0  0  0  0  0  0  0  0
   -4.1955   -0.2751    0.0000 C   0  0  0  0  0  0  0  0  0  0  0  0
   -4.0256   -1.7655    0.0000 C   0  0  0  0  0  0  0  0  0  0  0  0
   -2.6500   -2.3635    0.0000 C   0  0  0  0  0  0  0  0  0  0  0  0
   -1.4442   -1.4711    0.0000 C   0  0  0  0  0  0  0  0  0  0  0  0
   -1.6142    0.0192    0.0000 C   0  0  0  0  0  0  0  0  0  0  0  0
   -2.7936   -3.8566    0.0000 O   0  0  0  0  0  0  0  0  0  0  0  0
   -4.2580   -4.1814    0.0000 C   0  0  0  0  0  0  0  0  0  0  0  0
   -5.0194   -2.8890    0.0000 O   0  0  0  0  0  0  0  0  0  0  0  0
    2.1729    1.2059    0.0000 C   0  0  0  0  0  0  0  0  0  0  0  0
    3.5485    0.6079    0.0000 C   0  0  0  0  0  0  0  0  0  0  0  0
    4.7542    1.5002    0.0000 O   0  0  0  0  0  0  0  0  0  0  0  0
    6.1299    0.9022    0.0000 C   0  0  0  0  0  0  0  0  0  0  0  0
    3.7185   -0.8825    0.0000 C   0  0  0  0  0  0  0  0  0  0  0  0
    5.0941   -1.4805    0.0000 O   0  0  0  0  0  0  0  0  0  0  0  0
    5.2640   -2.9708    0.0000 C   0  0  0  0  0  0  0  0  0  0  0  0
  1  2  1  0
  2  3  1  0
  3  4  2  0
  4  5  1  0
  5  6  1  0
  6  7  2  0
  7  8  1  0
  8  9  1  0
  9 10  1  0
 10 11  1  0
 11 12  2  0
  8 13  1  0
 13 14  1  0
 13 15  1  0
 15 16  2  0
 16 17  1  0
 17 18  2  0
 18 19  1  0
 19 20  2  0
 18 21  1  0
 21 22  1  0
 22 23  1  0
  5 24  2  0
 24 25  1  0
 25 26  1  0
 26 27  1  0
 25 28  2  0
 28 29  1  0
 29 30  1  0
 28  3  1  0
 20  6  1  0
 11  7  1  0
 20 15  1  0
 23 17  1  0
M  RAD  2   8   2  13   2
M  END
>  <identifier>  (503) 
CNP0518735.0

>  <canonical_smiles>  (503) 
COC1=CC(C2=C3[C](COC3=O)[C](O)C3=CC4=C(C=C23)OCO4)=CC(OC)=C1OC

>  <standard_inchi>  (503) 
InChI=1S/C22H18O8/c1-25-16-4-10(5-17(26-2)21(16)27-3)18-11-6-14-15(30-9-29-14)7-12(11)20(23)13-8-28-22(24)19(13)18/h4-7,23H,8-9H2,1-3H3

>  <standard_inchi_key>  (503) 
HSSDVCMYTACNSM-UHFFFAOYSA-N

>  <name>  (503) 
7?  8 ?-dehydropodophyllotoxin

>  <iupac_name>  (503) 
5-hydroxy-9-(3,4,5-trimethoxyphenyl)-6~{H}-isobenzofuro[6,5-f][1,3]benzodioxol-8-one

>  <annotation_level>  (503) 
5

>  <total_atom_count>  (503) 
48

>  <heavy_atom_count>  (503) 
30

>  <molecular_weight>  (503) 
410.38

>  <exact_molecular_weight>  (503) 
410.10017

>  <molecular_formula>  (503) 
C22H18O8

>  <alogp>  (503) 
2.64

>  <topological_polar_surface_area>  (503) 
92.68

>  <rotatable_bond_count>  (503) 
4

>  <hydrogen_bond_acceptors>  (503) 
8

>  <hydrogen_bond_donors>  (503) 
1

>  <hydrogen_bond_acceptors_lipinski>  (503) 
8

>  <hydrogen_bond_donors_lipinski>  (503) 
1

>  <lipinski_rule_of_five_violations>  (503) 
0

>  <aromatic_rings_count>  (503) 
2

>  <qed_drug_likeliness>  (503) 
0.77

>  <formal_charge>  (503) 
0

>  <fractioncsp3>  (503) 
0.23

>  <number_of_minimal_rings>  (503) 
5

>  <van_der_walls_volume>  (503) 
343.79

>  <contains_sugar>  (503) 
False

>  <contains_ring_sugars>  (503) 
False

>  <contains_linear_sugars>  (503) 
False

>  <murcko_framework>  (503) 
O1c2cc3c(cc2OC1)CC4C(=C3c5ccccc5)COC4

>  <np_likeness>  (503) 
0.63

>  <chemical_class>  (503) 
Lignan lactones

>  <chemical_sub_class>  (503) 
Lignan lactones

>  <chemical_super_class>  (503) 
Lignans, neolignans and related compounds

>  <direct_parent_classification>  (503) 
Lignan lactones

>  <np_classifier_pathway>  (503) 
Shikimates and Phenylpropanoids

>  <np_classifier_superclass>  (503) 
Lignans

>  <np_classifier_class>  (503) 
Arylnaphthalene and aryltetralin lignans

>  <np_classifier_is_glycoside>  (503) 
False

>  <organisms>  (503) 
Bursera fagaroides

>  <collections>  (503) 
BIOFACQUIM

>  <dois>  (503) 
10.3390/molecules24010008

>  <synonyms>  (503) 
7?  8 ?-dehydropodophyllotoxin

>  <cas>  (503) 
nan

$$$$

     RDKit          2D

 33 37  0  0  0  0  0  0  0  0999 V2000
    3.5322   -3.4908    0.0000 C   0  0  0  0  0  0  0  0  0  0  0  0
    4.2997   -2.2020    0.0000 O   0  0  0  0  0  0  0  0  0  0  0  0
    3.5673   -0.8929    0.0000 C   0  0  0  0  0  0  0  0  0  0  0  0
    2.0675   -0.8726    0.0000 C   0  0  0  0  0  0  0  0  0  0  0  0
    1.3351    0.4364    0.0000 C   0  0  0  0  0  0  0  0  0  0  0  0
   -0.1647    0.4567    0.0000 C   0  0  0  0  0  0  0  0  0  0  0  0
   -0.8971    1.7658    0.0000 C   0  0  0  0  0  0  0  0  0  0  0  0
   -2.3970    1.7861    0.0000 C   0  0  0  0  0  3  0  0  0  0  0  0
   -2.8411    3.2188    0.0000 C   0  0  0  0  0  0  0  0  0  0  0  0
   -1.6158    4.0840    0.0000 O   0  0  0  0  0  0  0  0  0  0  0  0
   -0.4143    3.1860    0.0000 C   0  0  0  0  0  0  0  0  0  0  0  0
    1.0184    3.6302    0.0000 O   0  0  0  0  0  0  0  0  0  0  0  0
   -3.1645    0.4973    0.0000 C   0  0  0  0  0  3  0  0  0  0  0  0
   -4.6643    0.5176    0.0000 O   0  0  0  0  0  0  0  0  0  0  0  0
   -5.3967    1.8267    0.0000 C   0  0  0  0  0  0  0  0  0  0  0  0
   -6.8965    1.8470    0.0000 C   0  0  0  0  0  0  0  0  0  0  0  0
   -4.6292    3.1155    0.0000 O   0  0  0  0  0  0  0  0  0  0  0  0
   -2.4321   -0.8117    0.0000 C   0  0  0  0  0  0  0  0  0  0  0  0
   -3.1996   -2.1005    0.0000 C   0  0  0  0  0  0  0  0  0  0  0  0
   -2.4673   -3.4096    0.0000 C   0  0  0  0  0  0  0  0  0  0  0  0
   -0.9674   -3.4299    0.0000 C   0  0  0  0  0  0  0  0  0  0  0  0
   -0.1999   -2.1411    0.0000 C   0  0  0  0  0  0  0  0  0  0  0  0
   -0.9323   -0.8320    0.0000 C   0  0  0  0  0  0  0  0  0  0  0  0
   -0.5232   -4.8626    0.0000 O   0  0  0  0  0  0  0  0  0  0  0  0
   -1.7486   -5.7278    0.0000 C   0  0  0  0  0  0  0  0  0  0  0  0
   -2.9501   -4.8298    0.0000 O   0  0  0  0  0  0  0  0  0  0  0  0
    2.1026    1.7252    0.0000 C   0  0  0  0  0  0  0  0  0  0  0  0
    3.6025    1.7049    0.0000 C   0  0  0  0  0  0  0  0  0  0  0  0
    4.3700    2.9937    0.0000 O   0  0  0  0  0  0  0  0  0  0  0  0
    5.8699    2.9734    0.0000 C   0  0  0  0  0  0  0  0  0  0  0  0
    4.3348    0.3958    0.0000 C   0  0  0  0  0  0  0  0  0  0  0  0
    5.8347    0.3755    0.0000 O   0  0  0  0  0  0  0  0  0  0  0  0
    6.5671   -0.9335    0.0000 C   0  0  0  0  0  0  0  0  0  0  0  0
  1  2  1  0
  2  3  1  0
  3  4  2  0
  4  5  1  0
  5  6  1  0
  6  7  2  0
  7  8  1  0
  8  9  1  0
  9 10  1  0
 10 11  1  0
 11 12  2  0
  8 13  1  0
 13 14  1  0
 14 15  1  0
 15 16  1  0
 15 17  2  0
 13 18  1  0
 18 19  2  0
 19 20  1  0
 20 21  2  0
 21 22  1  0
 22 23  2  0
 21 24  1  0
 24 25  1  0
 25 26  1  0
  5 27  2  0
 27 28  1  0
 28 29  1  0
 29 30  1  0
 28 31  2  0
 31 32  1  0
 32 33  1  0
 31  3  1  0
 23  6  1  0
 11  7  1  0
 23 18  1  0
 26 20  1  0
M  RAD  2   8   2  13   2
M  END
>  <identifier>  (504) 
CNP0594937.0

>  <canonical_smiles>  (504) 
COC1=CC(C2=C3[C](COC3=O)[C](OC(C)=O)C3=CC4=C(C=C23)OCO4)=CC(OC)=C1OC

>  <standard_inchi>  (504) 
InChI=1S/C24H20O9/c1-11(25)33-22-14-8-17-16(31-10-32-17)7-13(14)20(21-15(22)9-30-24(21)26)12-5-18(27-2)23(29-4)19(6-12)28-3/h5-8H,9-10H2,1-4H3

>  <standard_inchi_key>  (504) 
HSFVICYTKHRHHN-UHFFFAOYSA-N

>  <name>  (504) 
7?  8?-dehydroacethyl podophyllotxin

>  <iupac_name>  (504) 
[8-oxo-9-(3,4,5-trimethoxyphenyl)-6~{H}-isobenzofuro[6,5-f][1,3]benzodioxol-5-yl] acetate

>  <annotation_level>  (504) 
5

>  <total_atom_count>  (504) 
53

>  <heavy_atom_count>  (504) 
33

>  <molecular_weight>  (504) 
452.42

>  <exact_molecular_weight>  (504) 
452.11073

>  <molecular_formula>  (504) 
C24H20O9

>  <alogp>  (504) 
2.83

>  <topological_polar_surface_area>  (504) 
98.75

>  <rotatable_bond_count>  (504) 
5

>  <hydrogen_bond_acceptors>  (504) 
9

>  <hydrogen_bond_donors>  (504) 
0

>  <hydrogen_bond_acceptors_lipinski>  (504) 
9

>  <hydrogen_bond_donors_lipinski>  (504) 
0

>  <lipinski_rule_of_five_violations>  (504) 
0

>  <aromatic_rings_count>  (504) 
2

>  <qed_drug_likeliness>  (504) 
0.63

>  <formal_charge>  (504) 
0

>  <fractioncsp3>  (504) 
0.25

>  <number_of_minimal_rings>  (504) 
5

>  <van_der_walls_volume>  (504) 
380.09

>  <contains_sugar>  (504) 
False

>  <contains_ring_sugars>  (504) 
False

>  <contains_linear_sugars>  (504) 
False

>  <murcko_framework>  (504) 
O1c2cc3c(cc2OC1)CC4C(=C3c5ccccc5)COC4

>  <np_likeness>  (504) 
0.62

>  <chemical_class>  (504) 
Lignan lactones

>  <chemical_sub_class>  (504) 
Lignan lactones

>  <chemical_super_class>  (504) 
Lignans, neolignans and related compounds

>  <direct_parent_classification>  (504) 
Lignan lactones

>  <np_classifier_pathway>  (504) 
Shikimates and Phenylpropanoids

>  <np_classifier_superclass>  (504) 
Lignans

>  <np_classifier_class>  (504) 
Arylnaphthalene and aryltetralin lignans

>  <np_classifier_is_glycoside>  (504) 
False

>  <organisms>  (504) 
Bursera fagaroides

>  <collections>  (504) 
BIOFACQUIM

>  <dois>  (504) 
10.3390/molecules24010008

>  <synonyms>  (504) 
7?  8?-dehydroacethyl podophyllotxin

>  <cas>  (504) 
nan

$$$$

     RDKit          2D

 22 22  0  0  0  0  0  0  0  0999 V2000
   -6.6700    1.8024    0.0000 C   0  0  0  0  0  0  0  0  0  0  0  0
   -5.2262    2.2090    0.0000 C   0  0  0  0  0  0  0  0  0  0  0  0
   -4.1522    1.1618    0.0000 C   0  0  0  0  0  0  0  0  0  0  0  0
   -2.7083    1.5684    0.0000 C   0  0  0  0  0  0  0  0  0  0  0  0
   -1.6343    0.5213    0.0000 C   0  0  0  0  0  3  0  0  0  0  0  0
   -0.1904    0.9279    0.0000 C   0  0  0  0  0  0  0  0  0  0  0  0
    0.8836   -0.1193    0.0000 C   0  0  0  0  0  0  0  0  0  0  0  0
    2.3274    0.2873    0.0000 C   0  0  0  0  0  3  0  0  0  0  0  0
    2.6973    1.7410    0.0000 O   0  0  0  0  0  0  0  0  0  0  0  0
    4.1411    2.1476    0.0000 C   0  0  0  0  0  0  0  0  0  0  0  0
    4.5109    3.6013    0.0000 O   0  0  0  0  0  0  0  0  0  0  0  0
    5.2151    1.1005    0.0000 C   0  0  0  0  0  0  0  0  0  0  0  0
    4.8453   -0.3532    0.0000 C   0  0  0  0  0  0  0  0  0  0  0  0
    3.4015   -0.7598    0.0000 C   0  0  0  0  0  3  0  0  0  0  0  0
    3.0316   -2.2135    0.0000 O   0  0  0  0  0  0  0  0  0  0  0  0
    1.5878   -2.6201    0.0000 C   0  0  0  0  0  0  0  0  0  0  0  0
    1.2180   -4.0738    0.0000 C   0  0  0  0  0  0  0  0  0  0  0  0
    0.5138   -1.5730    0.0000 O   0  0  0  0  0  0  0  0  0  0  0  0
   -2.0041   -0.9324    0.0000 O   0  0  0  0  0  0  0  0  0  0  0  0
   -3.4480   -1.3390    0.0000 C   0  0  0  0  0  0  0  0  0  0  0  0
   -3.8178   -2.7927    0.0000 C   0  0  0  0  0  0  0  0  0  0  0  0
   -4.5220   -0.2918    0.0000 O   0  0  0  0  0  0  0  0  0  0  0  0
  1  2  1  0
  2  3  1  0
  3  4  1  0
  4  5  1  0
  5  6  1  0
  6  7  2  3
  7  8  1  0
  8  9  1  0
  9 10  1  0
 10 11  2  0
 10 12  1  0
 12 13  2  0
 13 14  1  0
 14 15  1  0
 15 16  1  0
 16 17  1  0
 16 18  2  0
  5 19  1  0
 19 20  1  0
 20 21  1  0
 20 22  2  0
 14  8  1  0
M  RAD  3   5   2   8   2  14   2
M  END
>  <identifier>  (505) 
CNP0591954.0

>  <canonical_smiles>  (505) 
CCCC[C](C=C[C]1OC(=O)C=C[C]1OC(C)=O)OC(C)=O

>  <standard_inchi>  (505) 
InChI=1S/C16H19O6/c1-4-5-6-13(20-11(2)17)7-8-15-14(21-12(3)18)9-10-16(19)22-15/h7-10H,4-6H2,1-3H3

>  <standard_inchi_key>  (505) 
JSDJAKKKLKVNDX-UHFFFAOYSA-N

>  <name>  (505) 
(R E)-1-((2S 3S)-3-acetoxy-6-oxo-3 6-dihydro-2H-pyran-2-yl)hept-1-en-3-yl acetate

>  <iupac_name>  (505) 
[2-(3-acetoxyhept-1-enyl)-6-oxo-pyran-3-yl] acetate

>  <annotation_level>  (505) 
5

>  <total_atom_count>  (505) 
41

>  <heavy_atom_count>  (505) 
22

>  <molecular_weight>  (505) 
307.32

>  <exact_molecular_weight>  (505) 
307.11816

>  <molecular_formula>  (505) 
C16H19O6

>  <alogp>  (505) 
2.57

>  <topological_polar_surface_area>  (505) 
78.90

>  <rotatable_bond_count>  (505) 
7

>  <hydrogen_bond_acceptors>  (505) 
6

>  <hydrogen_bond_donors>  (505) 
0

>  <hydrogen_bond_acceptors_lipinski>  (505) 
6

>  <hydrogen_bond_donors_lipinski>  (505) 
0

>  <lipinski_rule_of_five_violations>  (505) 
0

>  <aromatic_rings_count>  (505) 
0

>  <qed_drug_likeliness>  (505) 
0.53

>  <formal_charge>  (505) 
0

>  <fractioncsp3>  (505) 
0.38

>  <number_of_minimal_rings>  (505) 
1

>  <van_der_walls_volume>  (505) 
285.12

>  <contains_sugar>  (505) 
False

>  <contains_ring_sugars>  (505) 
False

>  <contains_linear_sugars>  (505) 
False

>  <murcko_framework>  (505) 
O1CC=CCC1

>  <np_likeness>  (505) 
0.81

>  <chemical_class>  (505) 
Carboxylic acids and derivatives

>  <chemical_sub_class>  (505) 
Tricarboxylic acids and derivatives

>  <chemical_super_class>  (505) 
Organic acids and derivatives

>  <direct_parent_classification>  (505) 
Tricarboxylic acids and derivatives

>  <np_classifier_pathway>  (505) 
Polyketides

>  <np_classifier_superclass>  (505) 
nan

>  <np_classifier_class>  (505) 
nan

>  <np_classifier_is_glycoside>  (505) 
False

>  <organisms>  (505) 
Hyptis pectinata

>  <collections>  (505) 
BIOFACQUIM

>  <dois>  (505) 
10.1021/acs.jnatprod.8b00908

>  <synonyms>  (505) 
(R E)-1-((2S 3S)-3-acetoxy-6-oxo-3 6-dihydro-2H-pyran-2-yl)hept-1-en-3-yl acetate

>  <cas>  (505) 
nan

$$$$

     RDKit          2D

 18 18  0  0  0  0  0  0  0  0999 V2000
   -6.4326    1.3295    0.0000 C   0  0  0  0  0  0  0  0  0  0  0  0
   -4.9999    1.7739    0.0000 C   0  0  0  0  0  0  0  0  0  0  0  0
   -3.8988    0.7553    0.0000 C   0  0  0  0  0  0  0  0  0  0  0  0
   -2.4661    1.1997    0.0000 C   0  0  0  0  0  0  0  0  0  0  0  0
   -1.3649    0.1811    0.0000 C   0  0  0  0  0  3  0  0  0  0  0  0
    0.0677    0.6255    0.0000 C   0  0  0  0  0  0  0  0  0  0  0  0
    1.1689   -0.3931    0.0000 C   0  0  0  0  0  0  0  0  0  0  0  0
    2.6016    0.0513    0.0000 C   0  0  0  0  0  3  0  0  0  0  0  0
    2.9331    1.5142    0.0000 C   0  0  0  0  0  0  0  0  0  0  0  0
    4.3658    1.9586    0.0000 C   0  0  0  0  0  0  0  0  0  0  0  0
    5.4669    0.9400    0.0000 C   0  0  0  0  0  0  0  0  0  0  0  0
    5.1354   -0.5229    0.0000 C   0  0  0  0  0  0  0  0  0  0  0  0
    6.2366   -1.5414    0.0000 O   0  0  0  0  0  0  0  0  0  0  0  0
    3.7027   -0.9673    0.0000 O   0  0  0  0  0  0  0  0  0  0  0  0
   -1.6964   -1.2818    0.0000 O   0  0  0  0  0  0  0  0  0  0  0  0
   -3.1291   -1.7261    0.0000 C   0  0  0  0  0  0  0  0  0  0  0  0
   -3.4606   -3.1890    0.0000 C   0  0  0  0  0  0  0  0  0  0  0  0
   -4.2303   -0.7076    0.0000 O   0  0  0  0  0  0  0  0  0  0  0  0
  1  2  1  0
  2  3  1  0
  3  4  1  0
  4  5  1  0
  5  6  1  0
  6  7  2  3
  7  8  1  0
  8  9  1  0
  9 10  1  0
 10 11  2  0
 11 12  1  0
 12 13  2  0
 12 14  1  0
  5 15  1  0
 15 16  1  0
 16 17  1  0
 16 18  2  0
 14  8  1  0
M  RAD  2   5   2   8   2
M  END
>  <identifier>  (506) 
CNP0561292.0

>  <canonical_smiles>  (506) 
CCCC[C](C=C[C]1CC=CC(=O)O1)OC(C)=O

>  <standard_inchi>  (506) 
InChI=1S/C14H18O4/c1-3-4-6-12(17-11(2)15)9-10-13-7-5-8-14(16)18-13/h5,8-10H,3-4,6-7H2,1-2H3

>  <standard_inchi_key>  (506) 
XZZQWYNNTGEFGR-UHFFFAOYSA-N

>  <name>  (506) 
(R E)-1-((R)-6-oxo-3 6-dihydro-2H-pyran-2-yl)hept-1-en-3-yl acetate

>  <iupac_name>  (506) 
1-[2-(6-oxo-3~{H}-pyran-2-yl)vinyl]pentyl acetate

>  <annotation_level>  (506) 
5

>  <total_atom_count>  (506) 
36

>  <heavy_atom_count>  (506) 
18

>  <molecular_weight>  (506) 
250.29

>  <exact_molecular_weight>  (506) 
250.12051

>  <molecular_formula>  (506) 
C14H18O4

>  <alogp>  (506) 
2.86

>  <topological_polar_surface_area>  (506) 
52.60

>  <rotatable_bond_count>  (506) 
6

>  <hydrogen_bond_acceptors>  (506) 
4

>  <hydrogen_bond_donors>  (506) 
0

>  <hydrogen_bond_acceptors_lipinski>  (506) 
4

>  <hydrogen_bond_donors_lipinski>  (506) 
0

>  <lipinski_rule_of_five_violations>  (506) 
0

>  <aromatic_rings_count>  (506) 
0

>  <qed_drug_likeliness>  (506) 
0.68

>  <formal_charge>  (506) 
0

>  <fractioncsp3>  (506) 
0.43

>  <number_of_minimal_rings>  (506) 
1

>  <van_der_walls_volume>  (506) 
241.74

>  <contains_sugar>  (506) 
False

>  <contains_ring_sugars>  (506) 
False

>  <contains_linear_sugars>  (506) 
False

>  <murcko_framework>  (506) 
O1CC=CCC1

>  <np_likeness>  (506) 
1.24

>  <chemical_class>  (506) 
Pyrans

>  <chemical_sub_class>  (506) 
Pyranones and derivatives

>  <chemical_super_class>  (506) 
Organoheterocyclic compounds

>  <direct_parent_classification>  (506) 
Dihydropyranones

>  <np_classifier_pathway>  (506) 
Polyketides

>  <np_classifier_superclass>  (506) 
nan

>  <np_classifier_class>  (506) 
nan

>  <np_classifier_is_glycoside>  (506) 
False

>  <organisms>  (506) 
Hyptis pectinata

>  <collections>  (506) 
BIOFACQUIM

>  <dois>  (506) 
10.1021/acs.jnatprod.8b00908

>  <synonyms>  (506) 
(R E)-1-((R)-6-oxo-3 6-dihydro-2H-pyran-2-yl)hept-1-en-3-yl acetate

>  <cas>  (506) 
nan

$$$$

     RDKit          2D

 18 18  0  0  0  0  0  0  0  0999 V2000
   -7.5760    0.4076    0.0000 C   0  0  0  0  0  0  0  0  0  0  0  0
   -6.2067    1.0198    0.0000 C   0  0  0  0  0  0  0  0  0  0  0  0
   -4.9918    0.1400    0.0000 C   0  0  0  0  0  0  0  0  0  0  0  0
   -3.6224    0.7521    0.0000 C   0  0  0  0  0  0  0  0  0  0  0  0
   -2.4075   -0.1277    0.0000 C   0  0  0  0  0  0  0  0  0  0  0  0
   -1.0381    0.4845    0.0000 C   0  0  0  0  0  0  0  0  0  0  0  0
    0.1767   -0.3953    0.0000 C   0  0  0  0  0  0  0  0  0  0  0  0
    1.5461    0.2169    0.0000 C   0  0  0  0  0  3  0  0  0  0  0  0
    1.7006    1.7089    0.0000 O   0  0  0  0  0  0  0  0  0  0  0  0
    3.0700    2.3211    0.0000 C   0  0  0  0  0  0  0  0  0  0  0  0
    3.2245    3.8131    0.0000 O   0  0  0  0  0  0  0  0  0  0  0  0
    4.2849    1.4413    0.0000 C   0  0  0  0  0  0  0  0  0  0  0  0
    4.1304   -0.0507    0.0000 C   0  0  0  0  0  0  0  0  0  0  0  0
    2.7610   -0.6629    0.0000 C   0  0  0  0  0  3  0  0  0  0  0  0
    2.6065   -2.1550    0.0000 O   0  0  0  0  0  0  0  0  0  0  0  0
    1.2371   -2.7672    0.0000 C   0  0  0  0  0  0  0  0  0  0  0  0
    1.0826   -4.2592    0.0000 C   0  0  0  0  0  0  0  0  0  0  0  0
    0.0222   -1.8873    0.0000 O   0  0  0  0  0  0  0  0  0  0  0  0
  1  2  1  0
  2  3  1  0
  3  4  1  0
  4  5  1  0
  5  6  1  0
  6  7  2  3
  7  8  1  0
  8  9  1  0
  9 10  1  0
 10 11  2  0
 10 12  1  0
 12 13  2  0
 13 14  1  0
 14 15  1  0
 15 16  1  0
 16 17  1  0
 16 18  2  0
 14  8  1  0
M  RAD  2   8   2  14   2
M  END
>  <identifier>  (507) 
CNP0486827.0

>  <canonical_smiles>  (507) 
CCCCCC=C[C]1OC(=O)C=C[C]1OC(C)=O

>  <standard_inchi>  (507) 
InChI=1S/C14H18O4/c1-3-4-5-6-7-8-12-13(17-11(2)15)9-10-14(16)18-12/h7-10H,3-6H2,1-2H3

>  <standard_inchi_key>  (507) 
HNLDVBRXGJOZPK-UHFFFAOYSA-N

>  <name>  (507) 
(2S 3S)-2-((E)-hept-1-en-1-yl)-6-oxo-3 6-dihydro-2H-pyran-3-yl acetate

>  <iupac_name>  (507) 
(2-hept-1-enyl-6-oxo-pyran-3-yl) acetate

>  <annotation_level>  (507) 
5

>  <total_atom_count>  (507) 
36

>  <heavy_atom_count>  (507) 
18

>  <molecular_weight>  (507) 
250.29

>  <exact_molecular_weight>  (507) 
250.12051

>  <molecular_formula>  (507) 
C14H18O4

>  <alogp>  (507) 
2.86

>  <topological_polar_surface_area>  (507) 
52.60

>  <rotatable_bond_count>  (507) 
6

>  <hydrogen_bond_acceptors>  (507) 
4

>  <hydrogen_bond_donors>  (507) 
0

>  <hydrogen_bond_acceptors_lipinski>  (507) 
4

>  <hydrogen_bond_donors_lipinski>  (507) 
0

>  <lipinski_rule_of_five_violations>  (507) 
0

>  <aromatic_rings_count>  (507) 
0

>  <qed_drug_likeliness>  (507) 
0.54

>  <formal_charge>  (507) 
0

>  <fractioncsp3>  (507) 
0.43

>  <number_of_minimal_rings>  (507) 
1

>  <van_der_walls_volume>  (507) 
242.66

>  <contains_sugar>  (507) 
False

>  <contains_ring_sugars>  (507) 
False

>  <contains_linear_sugars>  (507) 
False

>  <murcko_framework>  (507) 
O1CC=CCC1

>  <np_likeness>  (507) 
1.42

>  <chemical_class>  (507) 
Pyrans

>  <chemical_sub_class>  (507) 
Pyranones and derivatives

>  <chemical_super_class>  (507) 
Organoheterocyclic compounds

>  <direct_parent_classification>  (507) 
Dihydropyranones

>  <np_classifier_pathway>  (507) 
Polyketides

>  <np_classifier_superclass>  (507) 
Chromanes

>  <np_classifier_class>  (507) 
nan

>  <np_classifier_is_glycoside>  (507) 
False

>  <organisms>  (507) 
Hyptis pectinata

>  <collections>  (507) 
BIOFACQUIM

>  <dois>  (507) 
10.1021/acs.jnatprod.8b00908

>  <synonyms>  (507) 
(2S 3S)-2-((E)-hept-1-en-1-yl)-6-oxo-3 6-dihydro-2H-pyran-3-yl acetate

>  <cas>  (507) 
nan

$$$$

     RDKit          2D

 14 14  0  0  0  0  0  0  0  0999 V2000
   -7.3732   -0.1229    0.0000 C   0  0  0  0  0  0  0  0  0  0  0  0
   -6.0104    0.5039    0.0000 C   0  0  0  0  0  0  0  0  0  0  0  0
   -4.7862   -0.3629    0.0000 C   0  0  0  0  0  0  0  0  0  0  0  0
   -3.4234    0.2639    0.0000 C   0  0  0  0  0  0  0  0  0  0  0  0
   -2.1993   -0.6030    0.0000 C   0  0  0  0  0  0  0  0  0  0  0  0
   -0.8365    0.0238    0.0000 C   0  0  0  0  0  0  0  0  0  0  0  0
    0.3877   -0.8430    0.0000 C   0  0  0  0  0  0  0  0  0  0  0  0
    1.7505   -0.2162    0.0000 C   0  0  0  0  0  3  0  0  0  0  0  0
    1.8891    1.2774    0.0000 C   0  0  0  0  0  0  0  0  0  0  0  0
    3.2519    1.9041    0.0000 C   0  0  0  0  0  0  0  0  0  0  0  0
    4.4760    1.0373    0.0000 C   0  0  0  0  0  0  0  0  0  0  0  0
    4.3375   -0.4563    0.0000 C   0  0  0  0  0  0  0  0  0  0  0  0
    5.5616   -1.3231    0.0000 O   0  0  0  0  0  0  0  0  0  0  0  0
    2.9747   -1.0830    0.0000 O   0  0  0  0  0  0  0  0  0  0  0  0
  1  2  1  0
  2  3  1  0
  3  4  1  0
  4  5  1  0
  5  6  1  0
  6  7  2  3
  7  8  1  0
  8  9  1  0
  9 10  1  0
 10 11  2  0
 11 12  1  0
 12 13  2  0
 12 14  1  0
 14  8  1  0
M  RAD  1   8   2
M  END
>  <identifier>  (508) 
CNP0546887.0

>  <canonical_smiles>  (508) 
CCCCCC=C[C]1CC=CC(=O)O1

>  <standard_inchi>  (508) 
InChI=1S/C12H17O2/c1-2-3-4-5-6-8-11-9-7-10-12(13)14-11/h6-8,10H,2-5,9H2,1H3

>  <standard_inchi_key>  (508) 
USFMROSKLPNOGB-UHFFFAOYSA-N

>  <name>  (508) 
(R E)-6-(hept-1-en-1-yl)-5 6-dihydro-2H-pyran-2-one

>  <iupac_name>  (508) 
2-hept-1-enyl-3~{H}-pyran-6-one

>  <annotation_level>  (508) 
5

>  <total_atom_count>  (508) 
31

>  <heavy_atom_count>  (508) 
14

>  <molecular_weight>  (508) 
193.27

>  <exact_molecular_weight>  (508) 
193.12285

>  <molecular_formula>  (508) 
C12H17O2

>  <alogp>  (508) 
3.16

>  <topological_polar_surface_area>  (508) 
26.30

>  <rotatable_bond_count>  (508) 
5

>  <hydrogen_bond_acceptors>  (508) 
2

>  <hydrogen_bond_donors>  (508) 
0

>  <hydrogen_bond_acceptors_lipinski>  (508) 
2

>  <hydrogen_bond_donors_lipinski>  (508) 
0

>  <lipinski_rule_of_five_violations>  (508) 
0

>  <aromatic_rings_count>  (508) 
0

>  <qed_drug_likeliness>  (508) 
0.49

>  <formal_charge>  (508) 
0

>  <fractioncsp3>  (508) 
0.50

>  <number_of_minimal_rings>  (508) 
1

>  <van_der_walls_volume>  (508) 
199.24

>  <contains_sugar>  (508) 
False

>  <contains_ring_sugars>  (508) 
False

>  <contains_linear_sugars>  (508) 
False

>  <murcko_framework>  (508) 
O1CC=CCC1

>  <np_likeness>  (508) 
1.96

>  <chemical_class>  (508) 
Pyrans

>  <chemical_sub_class>  (508) 
Pyranones and derivatives

>  <chemical_super_class>  (508) 
Organoheterocyclic compounds

>  <direct_parent_classification>  (508) 
Dihydropyranones

>  <np_classifier_pathway>  (508) 
Polyketides

>  <np_classifier_superclass>  (508) 
Miscellaneous polyketides

>  <np_classifier_class>  (508) 
Miscellaneous polyketides

>  <np_classifier_is_glycoside>  (508) 
False

>  <organisms>  (508) 
Hyptis pectinata

>  <collections>  (508) 
BIOFACQUIM

>  <dois>  (508) 
10.1021/acs.jnatprod.8b00908

>  <synonyms>  (508) 
(R E)-6-(hept-1-en-1-yl)-5 6-dihydro-2H-pyran-2-one

>  <cas>  (508) 
nan

$$$$

     RDKit          2D

 19 19  0  0  0  0  0  0  0  0999 V2000
   -6.4180    1.6937    0.0000 C   0  0  0  0  0  0  0  0  0  0  0  0
   -4.9554    2.0268    0.0000 C   0  0  0  0  0  0  0  0  0  0  0  0
   -3.9357    0.9268    0.0000 C   0  0  0  0  0  0  0  0  0  0  0  0
   -2.4731    1.2599    0.0000 C   0  0  0  0  0  0  0  0  0  0  0  0
   -1.4534    0.1598    0.0000 C   0  0  0  0  0  3  0  0  0  0  0  0
    0.0092    0.4929    0.0000 C   0  0  0  0  0  0  0  0  0  0  0  0
    1.0289   -0.6071    0.0000 C   0  0  0  0  0  0  0  0  0  0  0  0
    2.4915   -0.2740    0.0000 C   0  0  0  0  0  3  0  0  0  0  0  0
    2.9343    1.1592    0.0000 O   0  0  0  0  0  0  0  0  0  0  0  0
    4.3968    1.4923    0.0000 C   0  0  0  0  0  0  0  0  0  0  0  0
    4.8396    2.9254    0.0000 O   0  0  0  0  0  0  0  0  0  0  0  0
    5.4166    0.3922    0.0000 C   0  0  0  0  0  0  0  0  0  0  0  0
    4.9738   -1.0409    0.0000 C   0  0  0  0  0  0  0  0  0  0  0  0
    3.5112   -1.3740    0.0000 C   0  0  0  0  0  3  0  0  0  0  0  0
    3.0685   -2.8072    0.0000 O   0  0  0  0  0  0  0  0  0  0  0  0
   -1.8962   -1.2733    0.0000 O   0  0  0  0  0  0  0  0  0  0  0  0
   -3.3587   -1.6064    0.0000 C   0  0  0  0  0  0  0  0  0  0  0  0
   -3.8015   -3.0396    0.0000 C   0  0  0  0  0  0  0  0  0  0  0  0
   -4.3785   -0.5064    0.0000 O   0  0  0  0  0  0  0  0  0  0  0  0
  1  2  1  0
  2  3  1  0
  3  4  1  0
  4  5  1  0
  5  6  1  0
  6  7  2  3
  7  8  1  0
  8  9  1  0
  9 10  1  0
 10 11  2  0
 10 12  1  0
 12 13  2  0
 13 14  1  0
 14 15  1  0
  5 16  1  0
 16 17  1  0
 17 18  1  0
 17 19  2  0
 14  8  1  0
M  RAD  3   5   2   8   2  14   2
M  END
>  <identifier>  (509) 
CNP0560805.0

>  <canonical_smiles>  (509) 
CCCC[C](C=C[C]1OC(=O)C=C[C]1O)OC(C)=O

>  <standard_inchi>  (509) 
InChI=1S/C14H17O5/c1-3-4-5-11(18-10(2)15)6-8-13-12(16)7-9-14(17)19-13/h6-9,16H,3-5H2,1-2H3

>  <standard_inchi_key>  (509) 
WPAKDTUZUVKRRC-UHFFFAOYSA-N

>  <name>  (509) 
(S E)-1-((2S 3S)-3-hydroxy-6-oxo-3 6-dihydro-2H-pyran-2-yl)hept-1-en-3-yl acetate

>  <iupac_name>  (509) 
1-[2-(3-hydroxy-6-oxo-pyran-2-yl)vinyl]pentyl acetate

>  <annotation_level>  (509) 
5

>  <total_atom_count>  (509) 
36

>  <heavy_atom_count>  (509) 
19

>  <molecular_weight>  (509) 
265.28

>  <exact_molecular_weight>  (509) 
265.1076

>  <molecular_formula>  (509) 
C14H17O5

>  <alogp>  (509) 
2.38

>  <topological_polar_surface_area>  (509) 
72.83

>  <rotatable_bond_count>  (509) 
6

>  <hydrogen_bond_acceptors>  (509) 
5

>  <hydrogen_bond_donors>  (509) 
1

>  <hydrogen_bond_acceptors_lipinski>  (509) 
5

>  <hydrogen_bond_donors_lipinski>  (509) 
1

>  <lipinski_rule_of_five_violations>  (509) 
0

>  <aromatic_rings_count>  (509) 
0

>  <qed_drug_likeliness>  (509) 
0.75

>  <formal_charge>  (509) 
0

>  <fractioncsp3>  (509) 
0.36

>  <number_of_minimal_rings>  (509) 
1

>  <van_der_walls_volume>  (509) 
248.86

>  <contains_sugar>  (509) 
False

>  <contains_ring_sugars>  (509) 
False

>  <contains_linear_sugars>  (509) 
False

>  <murcko_framework>  (509) 
O1CC=CCC1

>  <np_likeness>  (509) 
0.99

>  <chemical_class>  (509) 
Pyrans

>  <chemical_sub_class>  (509) 
Pyranones and derivatives

>  <chemical_super_class>  (509) 
Organoheterocyclic compounds

>  <direct_parent_classification>  (509) 
Dihydropyranones

>  <np_classifier_pathway>  (509) 
Polyketides

>  <np_classifier_superclass>  (509) 
nan

>  <np_classifier_class>  (509) 
nan

>  <np_classifier_is_glycoside>  (509) 
False

>  <organisms>  (509) 
Hyptis pectinata

>  <collections>  (509) 
BIOFACQUIM

>  <dois>  (509) 
10.1021/acs.jnatprod.8b00908

>  <synonyms>  (509) 
(S E)-1-((2S 3S)-3-hydroxy-6-oxo-3 6-dihydro-2H-pyran-2-yl)hept-1-en-3-yl acetate

>  <cas>  (509) 
nan

$$$$

     RDKit          2D

 24 24  0  0  0  0  0  0  0  0999 V2000
   -7.2932    1.3492    0.0000 C   0  0  0  0  0  0  0  0  0  0  0  0
   -5.8903    1.8800    0.0000 C   0  0  0  0  0  0  0  0  0  0  0  0
   -4.7291    0.9305    0.0000 C   0  0  0  0  0  0  0  0  0  0  0  0
   -3.3262    1.4614    0.0000 C   0  0  0  0  0  0  0  0  0  0  0  0
   -2.1650    0.5118    0.0000 C   0  0  0  0  0  3  0  0  0  0  0  0
   -0.7621    1.0427    0.0000 C   0  0  0  0  0  0  0  0  0  0  0  0
    0.3991    0.0932    0.0000 C   0  0  0  0  0  0  0  0  0  0  0  0
    1.8020    0.6240    0.0000 C   0  0  0  0  0  3  0  0  0  0  0  0
    2.0438    2.1044    0.0000 O   0  0  0  0  0  0  0  0  0  0  0  0
    3.4467    2.6353    0.0000 C   0  0  0  0  0  0  0  0  0  0  0  0
    3.6884    4.1157    0.0000 O   0  0  0  0  0  0  0  0  0  0  0  0
    4.6079    1.6857    0.0000 C   0  0  0  0  0  0  0  0  0  0  0  0
    4.3662    0.2053    0.0000 C   0  0  0  0  0  3  0  0  0  0  0  0
    5.5274   -0.7442    0.0000 O   0  0  0  0  0  0  0  0  0  0  0  0
    5.2856   -2.2246    0.0000 C   0  0  0  0  0  0  0  0  0  0  0  0
    2.9632   -0.3255    0.0000 C   0  0  0  0  0  3  0  0  0  0  0  0
    2.7215   -1.8059    0.0000 O   0  0  0  0  0  0  0  0  0  0  0  0
    1.3186   -2.3368    0.0000 C   0  0  0  0  0  0  0  0  0  0  0  0
    1.0769   -3.8172    0.0000 C   0  0  0  0  0  0  0  0  0  0  0  0
    0.1574   -1.3872    0.0000 O   0  0  0  0  0  0  0  0  0  0  0  0
   -2.4067   -0.9686    0.0000 O   0  0  0  0  0  0  0  0  0  0  0  0
   -3.8096   -1.4994    0.0000 C   0  0  0  0  0  0  0  0  0  0  0  0
   -4.0514   -2.9798    0.0000 C   0  0  0  0  0  0  0  0  0  0  0  0
   -4.9708   -0.5499    0.0000 O   0  0  0  0  0  0  0  0  0  0  0  0
  1  2  1  0
  2  3  1  0
  3  4  1  0
  4  5  1  0
  5  6  1  0
  6  7  2  3
  7  8  1  0
  8  9  1  0
  9 10  1  0
 10 11  2  0
 10 12  1  0
 12 13  1  0
 13 14  1  0
 14 15  1  0
 13 16  1  0
 16 17  1  0
 17 18  1  0
 18 19  1  0
 18 20  2  0
  5 21  1  0
 21 22  1  0
 22 23  1  0
 22 24  2  0
 16  8  1  0
M  RAD  4   5   2   8   2  13   2  16   2
M  END
>  <identifier>  (510) 
CNP0504707.0

>  <canonical_smiles>  (510) 
CCCC[C](C=C[C]1OC(=O)C[C](OC)[C]1OC(C)=O)OC(C)=O

>  <standard_inchi>  (510) 
InChI=1S/C17H22O7/c1-5-6-7-13(22-11(2)18)8-9-14-17(23-12(3)19)15(21-4)10-16(20)24-14/h8-9H,5-7,10H2,1-4H3

>  <standard_inchi_key>  (510) 
STIZHNMJOXLZJP-UHFFFAOYSA-N

>  <name>  (510) 
(R E)-1-((2S 3S 4R)-3-acetoxy-4-methoxy-6-oxotetrahydro-2H-pyran-2-yl)hept-1-en-3-yl acetate

>  <iupac_name>  (510) 
[6-(3-acetoxyhept-1-enyl)-4-methoxy-2-oxo-3~{H}-pyran-5-yl] acetate

>  <annotation_level>  (510) 
5

>  <total_atom_count>  (510) 
46

>  <heavy_atom_count>  (510) 
24

>  <molecular_weight>  (510) 
338.36

>  <exact_molecular_weight>  (510) 
338.13655

>  <molecular_formula>  (510) 
C17H22O7

>  <alogp>  (510) 
2.58

>  <topological_polar_surface_area>  (510) 
88.13

>  <rotatable_bond_count>  (510) 
8

>  <hydrogen_bond_acceptors>  (510) 
7

>  <hydrogen_bond_donors>  (510) 
0

>  <hydrogen_bond_acceptors_lipinski>  (510) 
7

>  <hydrogen_bond_donors_lipinski>  (510) 
0

>  <lipinski_rule_of_five_violations>  (510) 
0

>  <aromatic_rings_count>  (510) 
0

>  <qed_drug_likeliness>  (510) 
0.50

>  <formal_charge>  (510) 
0

>  <fractioncsp3>  (510) 
0.47

>  <number_of_minimal_rings>  (510) 
1

>  <van_der_walls_volume>  (510) 
314.82

>  <contains_sugar>  (510) 
False

>  <contains_ring_sugars>  (510) 
False

>  <contains_linear_sugars>  (510) 
False

>  <murcko_framework>  (510) 
O1CCCCC1

>  <np_likeness>  (510) 
0.58

>  <chemical_class>  (510) 
Carboxylic acids and derivatives

>  <chemical_sub_class>  (510) 
Tricarboxylic acids and derivatives

>  <chemical_super_class>  (510) 
Organic acids and derivatives

>  <direct_parent_classification>  (510) 
Tricarboxylic acids and derivatives

>  <np_classifier_pathway>  (510) 
Polyketides

>  <np_classifier_superclass>  (510) 
nan

>  <np_classifier_class>  (510) 
nan

>  <np_classifier_is_glycoside>  (510) 
False

>  <organisms>  (510) 
Hyptis pectinata

>  <collections>  (510) 
BIOFACQUIM

>  <dois>  (510) 
10.1021/acs.jnatprod.8b00908

>  <synonyms>  (510) 
(R E)-1-((2S 3S 4R)-3-acetoxy-4-methoxy-6-oxotetrahydro-2H-pyran-2-yl)hept-1-en-3-yl acetate

>  <cas>  (510) 
nan

$$$$

     RDKit          2D

 16 16  0  0  0  0  0  0  0  0999 V2000
   -7.8960    0.3544    0.0000 C   0  0  0  0  0  0  0  0  0  0  0  0
   -6.4684    0.8147    0.0000 C   0  0  0  0  0  0  0  0  0  0  0  0
   -5.3559   -0.1915    0.0000 C   0  0  0  0  0  0  0  0  0  0  0  0
   -3.9283    0.2689    0.0000 C   0  0  0  0  0  0  0  0  0  0  0  0
   -2.8158   -0.7373    0.0000 C   0  0  0  0  0  0  0  0  0  0  0  0
   -1.3882   -0.2770    0.0000 C   0  0  0  0  0  0  0  0  0  0  0  0
   -0.2758   -1.2832    0.0000 C   0  0  0  0  0  0  0  0  0  0  0  0
    1.1519   -0.8229    0.0000 C   0  0  0  0  0  3  0  0  0  0  0  0
    1.4670    0.6436    0.0000 C   0  0  0  0  0  0  0  0  0  0  0  0
    2.8946    1.1040    0.0000 C   0  0  0  0  0  3  0  0  0  0  0  0
    3.2098    2.5705    0.0000 O   0  0  0  0  0  0  0  0  0  0  0  0
    4.6374    3.0308    0.0000 C   0  0  0  0  0  0  0  0  0  0  0  0
    4.0071    0.0978    0.0000 C   0  0  0  0  0  0  0  0  0  0  0  0
    3.6919   -1.3687    0.0000 C   0  0  0  0  0  0  0  0  0  0  0  0
    4.8044   -2.3749    0.0000 O   0  0  0  0  0  0  0  0  0  0  0  0
    2.2643   -1.8291    0.0000 O   0  0  0  0  0  0  0  0  0  0  0  0
  1  2  1  0
  2  3  1  0
  3  4  1  0
  4  5  1  0
  5  6  1  0
  6  7  2  3
  7  8  1  0
  8  9  1  0
  9 10  1  0
 10 11  1  0
 11 12  1  0
 10 13  1  0
 13 14  1  0
 14 15  2  0
 14 16  1  0
 16  8  1  0
M  RAD  2   8   2  10   2
M  END
>  <identifier>  (511) 
CNP0547128.0

>  <canonical_smiles>  (511) 
CCCCCC=C[C]1C[C](OC)CC(=O)O1

>  <standard_inchi>  (511) 
InChI=1S/C13H20O3/c1-3-4-5-6-7-8-11-9-12(15-2)10-13(14)16-11/h7-8H,3-6,9-10H2,1-2H3

>  <standard_inchi_key>  (511) 
BTJAYXZWERIYCG-UHFFFAOYSA-N

>  <name>  (511) 
(4S 6R)-6-((E)-hept-1-en-1-yl)-4-methoxytetrahydro-2H-pyran-2-one

>  <iupac_name>  (511) 
6-hept-1-enyl-4-methoxy-3,5-dihydropyran-2-one

>  <annotation_level>  (511) 
5

>  <total_atom_count>  (511) 
36

>  <heavy_atom_count>  (511) 
16

>  <molecular_weight>  (511) 
224.3

>  <exact_molecular_weight>  (511) 
224.14124

>  <molecular_formula>  (511) 
C13H20O3

>  <alogp>  (511) 
3.17

>  <topological_polar_surface_area>  (511) 
35.53

>  <rotatable_bond_count>  (511) 
6

>  <hydrogen_bond_acceptors>  (511) 
3

>  <hydrogen_bond_donors>  (511) 
0

>  <hydrogen_bond_acceptors_lipinski>  (511) 
3

>  <hydrogen_bond_donors_lipinski>  (511) 
0

>  <lipinski_rule_of_five_violations>  (511) 
0

>  <aromatic_rings_count>  (511) 
0

>  <qed_drug_likeliness>  (511) 
0.51

>  <formal_charge>  (511) 
0

>  <fractioncsp3>  (511) 
0.62

>  <number_of_minimal_rings>  (511) 
1

>  <van_der_walls_volume>  (511) 
227.75

>  <contains_sugar>  (511) 
False

>  <contains_ring_sugars>  (511) 
False

>  <contains_linear_sugars>  (511) 
False

>  <murcko_framework>  (511) 
O1CCCCC1

>  <np_likeness>  (511) 
1.15

>  <chemical_class>  (511) 
Lactones

>  <chemical_sub_class>  (511) 
Delta valerolactones

>  <chemical_super_class>  (511) 
Organoheterocyclic compounds

>  <direct_parent_classification>  (511) 
Delta valerolactones

>  <np_classifier_pathway>  (511) 
Polyketides

>  <np_classifier_superclass>  (511) 
nan

>  <np_classifier_class>  (511) 
nan

>  <np_classifier_is_glycoside>  (511) 
False

>  <organisms>  (511) 
Hyptis monticola

>  <collections>  (511) 
BIOFACQUIM

>  <dois>  (511) 
10.1021/acs.jnatprod.8b00908

>  <synonyms>  (511) 
(4S 6R)-6-((E)-hept-1-en-1-yl)-4-methoxytetrahydro-2H-pyran-2-one

>  <cas>  (511) 
nan

$$$$

     RDKit          2D

 18 18  0  0  0  0  0  0  0  0999 V2000
   -7.2382    0.5041    0.0000 C   0  0  0  0  0  0  0  0  0  0  0  0
   -5.8294    1.0192    0.0000 C   0  0  0  0  0  0  0  0  0  0  0  0
   -4.6790    0.0567    0.0000 C   0  0  0  0  0  0  0  0  0  0  0  0
   -3.2702    0.5717    0.0000 C   0  0  0  0  0  0  0  0  0  0  0  0
   -2.1197   -0.3908    0.0000 C   0  0  0  0  0  3  0  0  0  0  0  0
   -2.3780   -1.8684    0.0000 O   0  0  0  0  0  0  0  0  0  0  0  0
   -0.7109    0.1243    0.0000 C   0  0  0  0  0  3  0  0  0  0  0  0
   -0.4526    1.6019    0.0000 O   0  0  0  0  0  0  0  0  0  0  0  0
    0.4396   -0.8382    0.0000 C   0  0  0  0  0  3  0  0  0  0  0  0
    0.1812   -2.3158    0.0000 O   0  0  0  0  0  0  0  0  0  0  0  0
    1.8484   -0.3231    0.0000 C   0  0  0  0  0  3  0  0  0  0  0  0
    2.1067    1.1544    0.0000 O   0  0  0  0  0  0  0  0  0  0  0  0
    3.5155    1.6695    0.0000 C   0  0  0  0  0  0  0  0  0  0  0  0
    3.7738    3.1471    0.0000 O   0  0  0  0  0  0  0  0  0  0  0  0
    4.6659    0.7070    0.0000 C   0  0  0  0  0  0  0  0  0  0  0  0
    4.4076   -0.7706    0.0000 C   0  0  0  0  0  0  0  0  0  0  0  0
    2.9988   -1.2857    0.0000 C   0  0  0  0  0  3  0  0  0  0  0  0
    2.7405   -2.7633    0.0000 O   0  0  0  0  0  0  0  0  0  0  0  0
  1  2  1  0
  2  3  1  0
  3  4  1  0
  4  5  1  0
  5  6  1  0
  5  7  1  0
  7  8  1  0
  7  9  1  0
  9 10  1  0
  9 11  1  0
 11 12  1  0
 12 13  1  0
 13 14  2  0
 13 15  1  0
 15 16  2  0
 16 17  1  0
 17 18  1  0
 17 11  1  0
M  RAD  5   5   2   7   2   9   2  11   2  17   2
M  END
>  <identifier>  (512) 
CNP0481356.0

>  <canonical_smiles>  (512) 
CCCC[C](O)[C](O)[C](O)[C]1OC(=O)C=C[C]1O

>  <standard_inchi>  (512) 
InChI=1S/C12H15O6/c1-2-3-4-7(13)10(16)11(17)12-8(14)5-6-9(15)18-12/h5-6,13-14,16-17H,2-4H2,1H3

>  <standard_inchi_key>  (512) 
AUWKPJTZYIOXJF-UHFFFAOYSA-N

>  <name>  (512) 
(5S 6R)-5-hydroxy-6-((1S 2R 3S)-1 2 3-trihydroxyheptyl)-5 6-dihydro-2H-pyran-2-one

>  <iupac_name>  (512) 
5-hydroxy-6-(1,2,3-trihydroxyheptyl)pyran-2-one

>  <annotation_level>  (512) 
5

>  <total_atom_count>  (512) 
33

>  <heavy_atom_count>  (512) 
18

>  <molecular_weight>  (512) 
255.25

>  <exact_molecular_weight>  (512) 
255.08686

>  <molecular_formula>  (512) 
C12H15O6

>  <alogp>  (512) 
1.44

>  <topological_polar_surface_area>  (512) 
107.22

>  <rotatable_bond_count>  (512) 
6

>  <hydrogen_bond_acceptors>  (512) 
6

>  <hydrogen_bond_donors>  (512) 
4

>  <hydrogen_bond_acceptors_lipinski>  (512) 
6

>  <hydrogen_bond_donors_lipinski>  (512) 
4

>  <lipinski_rule_of_five_violations>  (512) 
0

>  <aromatic_rings_count>  (512) 
0

>  <qed_drug_likeliness>  (512) 
0.53

>  <formal_charge>  (512) 
0

>  <fractioncsp3>  (512) 
0.33

>  <number_of_minimal_rings>  (512) 
1

>  <van_der_walls_volume>  (512) 
229.15

>  <contains_sugar>  (512) 
False

>  <contains_ring_sugars>  (512) 
False

>  <contains_linear_sugars>  (512) 
False

>  <murcko_framework>  (512) 
O1CC=CCC1

>  <np_likeness>  (512) 
0.71

>  <chemical_class>  (512) 
Pyrans

>  <chemical_sub_class>  (512) 
Pyranones and derivatives

>  <chemical_super_class>  (512) 
Organoheterocyclic compounds

>  <direct_parent_classification>  (512) 
Dihydropyranones

>  <np_classifier_pathway>  (512) 
Polyketides

>  <np_classifier_superclass>  (512) 
nan

>  <np_classifier_class>  (512) 
nan

>  <np_classifier_is_glycoside>  (512) 
False

>  <organisms>  (512) 
Hyptis monticola

>  <collections>  (512) 
BIOFACQUIM

>  <dois>  (512) 
10.1021/acs.jnatprod.8b00908

>  <synonyms>  (512) 
(5S 6R)-5-hydroxy-6-((1S 2R 3S)-1 2 3-trihydroxyheptyl)-5 6-dihydro-2H-pyran-2-one

>  <cas>  (512) 
nan

$$$$

     RDKit          2D

 22 23  0  0  0  0  0  0  0  0999 V2000
   -3.6668   -2.0763    0.0000 C   0  0  0  0  0  0  0  0  0  0  0  0
   -3.7061   -0.5768    0.0000 C   0  0  0  0  0  0  0  0  0  0  0  0
   -5.0244    0.1389    0.0000 C   0  0  0  0  0  0  0  0  0  0  0  0
   -6.3033   -0.6449    0.0000 C   0  0  0  0  0  0  0  0  0  0  0  0
   -7.6216    0.0708    0.0000 O   0  0  0  0  0  0  0  0  0  0  0  0
   -2.4272    0.2070    0.0000 C   0  0  0  0  0  0  0  0  0  0  0  0
   -1.1089   -0.5087    0.0000 C   0  0  0  0  0  0  0  0  0  0  0  0
    0.1700    0.2751    0.0000 C   0  0  0  0  0  3  0  0  0  0  0  0
    1.4882   -0.4406    0.0000 C   0  0  0  0  0  0  0  0  0  0  0  0
    0.2093   -1.2244    0.0000 C   0  0  0  0  0  0  0  0  0  0  0  0
    1.5276   -1.9401    0.0000 C   0  0  0  0  0  0  0  0  0  0  0  0
    2.8458   -2.6558    0.0000 C   0  0  0  0  0  0  0  0  0  0  0  0
    4.1247   -1.8720    0.0000 C   0  0  0  0  0  0  0  0  0  0  0  0
    4.0854   -0.3725    0.0000 C   0  0  0  0  0  0  0  0  0  0  0  0
    4.5613    1.0500    0.0000 C   0  0  0  0  0  0  0  0  0  0  0  0
    5.5690   -0.5942    0.0000 C   0  0  0  0  0  0  0  0  0  0  0  0
    2.7672    0.3432    0.0000 C   0  0  0  0  0  3  0  0  0  0  0  0
    2.7279    1.8427    0.0000 C   0  0  0  0  0  0  0  0  0  0  0  0
    1.4096    2.5584    0.0000 C   0  0  0  0  0  0  0  0  0  0  0  0
    0.1307    1.7746    0.0000 C   0  0  0  0  0  0  0  0  0  0  0  0
   -0.4191    3.1702    0.0000 C   0  0  0  0  0  0  0  0  0  0  0  0
   -1.3392    1.4755    0.0000 O   0  0  0  0  0  0  0  0  0  0  0  0
  1  2  1  0
  2  3  2  0
  3  4  1  0
  4  5  1  0
  2  6  1  0
  6  7  1  0
  7  8  1  0
  8  9  1  0
  9 10  1  1
  9 11  1  0
 11 12  1  0
 12 13  1  0
 13 14  1  0
 14 15  1  0
 14 16  1  0
 14 17  1  0
 17 18  1  0
 18 19  1  0
 19 20  1  0
 20 21  1  1
 20 22  1  0
 20  8  1  0
 17  9  1  0
M  RAD  2   8   2  17   2
M  END
>  <identifier>  (513) 
CNP0569836.1

>  <canonical_smiles>  (513) 
C/C(=C\CO)CC[C]1[C@@]2(C)CCCC(C)(C)[C]2CC[C@@]1(C)O

>  <standard_inchi>  (513) 
InChI=1S/C20H34O2/c1-15(10-14-21)7-8-17-19(4)12-6-11-18(2,3)16(19)9-13-20(17,5)22/h10,21-22H,6-9,11-14H2,1-5H3/b15-10+/t19-,20+/m0/s1

>  <standard_inchi_key>  (513) 
NEGZMHBSAWUJNZ-XNTDWRONSA-N

>  <name>  (513) 
(-)-(13E)-labd-13-ene-8a 15-diol

>  <iupac_name>  (513) 
(2~{R},8~{a}~{S})-1-[(~{E})-5-hydroxy-3-methyl-pent-3-enyl]-2,5,5,8~{a}-tetramethyl-4,6,7,8-tetrahydro-3~{H}-naphthalen-2-ol

>  <annotation_level>  (513) 
5

>  <total_atom_count>  (513) 
56

>  <heavy_atom_count>  (513) 
22

>  <molecular_weight>  (513) 
306.49

>  <exact_molecular_weight>  (513) 
306.25588

>  <molecular_formula>  (513) 
C20H34O2

>  <alogp>  (513) 
4.62

>  <topological_polar_surface_area>  (513) 
40.46

>  <rotatable_bond_count>  (513) 
4

>  <hydrogen_bond_acceptors>  (513) 
2

>  <hydrogen_bond_donors>  (513) 
2

>  <hydrogen_bond_acceptors_lipinski>  (513) 
2

>  <hydrogen_bond_donors_lipinski>  (513) 
2

>  <lipinski_rule_of_five_violations>  (513) 
0

>  <aromatic_rings_count>  (513) 
0

>  <qed_drug_likeliness>  (513) 
0.74

>  <formal_charge>  (513) 
0

>  <fractioncsp3>  (513) 
0.80

>  <number_of_minimal_rings>  (513) 
2

>  <van_der_walls_volume>  (513) 
324.91

>  <contains_sugar>  (513) 
False

>  <contains_ring_sugars>  (513) 
False

>  <contains_linear_sugars>  (513) 
False

>  <murcko_framework>  (513) 
C1CCC2CCCCC2C1

>  <np_likeness>  (513) 
1.82

>  <chemical_class>  (513) 
Fatty Acyls

>  <chemical_sub_class>  (513) 
Fatty alcohols

>  <chemical_super_class>  (513) 
Lipids and lipid-like molecules

>  <direct_parent_classification>  (513) 
Fatty alcohols

>  <np_classifier_pathway>  (513) 
Terpenoids

>  <np_classifier_superclass>  (513) 
Diterpenoids

>  <np_classifier_class>  (513) 
Halimane diterpenoids

>  <np_classifier_is_glycoside>  (513) 
False

>  <organisms>  (513) 
Physalis nicandroides var. attenuata

>  <collections>  (513) 
BIOFACQUIM

>  <dois>  (513) 
10.1021/acs.jnatprod.9b00233

>  <synonyms>  (513) 
(-)-(13E)-labd-13-ene-8a 15-diol

>  <cas>  (513) 
nan

$$$$

     RDKit          2D

 22 23  0  0  0  0  0  0  0  0999 V2000
   -0.8401    2.7678    0.0000 C   0  0  0  0  0  0  0  0  0  0  0  0
    0.4375    1.9818    0.0000 C   0  0  0  0  0  0  0  0  0  0  0  0
    0.3955    0.4824    0.0000 C   0  0  0  0  0  0  0  0  0  0  0  0
   -0.9239   -0.2310    0.0000 C   0  0  0  0  0  0  0  0  0  0  0  0
   -2.2015    0.5550    0.0000 C   0  0  0  0  0  0  0  0  0  0  0  0
   -3.5210   -0.1584    0.0000 C   0  0  0  0  0  0  0  0  0  0  0  0
   -4.7986    0.6276    0.0000 C   0  0  0  0  0  0  0  0  0  0  0  0
   -6.1181   -0.0858    0.0000 C   0  0  0  0  0  0  0  0  0  0  0  0
   -7.3956    0.7002    0.0000 O   0  0  0  0  0  0  0  0  0  0  0  0
   -3.5629   -1.6579    0.0000 C   0  0  0  0  0  0  0  0  0  0  0  0
   -4.8824   -2.3713    0.0000 O   0  0  0  0  0  0  0  0  0  0  0  0
    1.6731   -0.3036    0.0000 C   0  0  0  0  0  0  0  0  0  0  0  0
    0.3536   -1.0171    0.0000 C   0  0  0  0  0  0  0  0  0  0  0  0
    1.6312   -1.8031    0.0000 C   0  0  0  0  0  0  0  0  0  0  0  0
    2.9088   -2.5891    0.0000 C   0  0  0  0  0  0  0  0  0  0  0  0
    4.2283   -1.8757    0.0000 C   0  0  0  0  0  0  0  0  0  0  0  0
    4.2702   -0.3763    0.0000 C   0  0  0  0  0  0  0  0  0  0  0  0
    4.8224    1.0184    0.0000 C   0  0  0  0  0  0  0  0  0  0  0  0
    5.7395   -0.6779    0.0000 C   0  0  0  0  0  0  0  0  0  0  0  0
    2.9926    0.4098    0.0000 C   0  0  0  0  0  3  0  0  0  0  0  0
    3.0345    1.9092    0.0000 C   0  0  0  0  0  0  0  0  0  0  0  0
    1.7570    2.6952    0.0000 C   0  0  0  0  0  0  0  0  0  0  0  0
  1  2  1  0
  2  3  2  0
  3  4  1  0
  4  5  1  0
  5  6  1  0
  6  7  2  0
  7  8  1  0
  8  9  1  0
  6 10  1  0
 10 11  1  0
  3 12  1  0
 12 13  1  1
 12 14  1  0
 14 15  1  0
 15 16  1  0
 16 17  1  0
 17 18  1  0
 17 19  1  0
 17 20  1  0
 20 21  1  0
 21 22  1  0
 22  2  1  0
 20 12  1  0
M  RAD  1  20   2
M  END
>  <identifier>  (514) 
CNP0512706.1

>  <canonical_smiles>  (514) 
CC1=C(CC/C(=C/CO)CO)[C@@]2(C)CCCC(C)(C)[C]2CC1

>  <standard_inchi>  (514) 
InChI=1S/C20H33O2/c1-15-6-9-18-19(2,3)11-5-12-20(18,4)17(15)8-7-16(14-22)10-13-21/h10,21-22H,5-9,11-14H2,1-4H3/b16-10-/t20-/m1/s1

>  <standard_inchi_key>  (514) 
DJSFAWZLIJZIEP-IKXXZMEWSA-N

>  <name>  (514) 
(+)-(Z)-labda-8 13-diene-15 16-diol

>  <iupac_name>  (514) 
(~{Z})-2-[2-[(8~{a}~{S})-2,5,5,8~{a}-tetramethyl-4,6,7,8-tetrahydro-3~{H}-naphthalen-1-yl]ethyl]but-2-ene-1,4-diol

>  <annotation_level>  (514) 
5

>  <total_atom_count>  (514) 
55

>  <heavy_atom_count>  (514) 
22

>  <molecular_weight>  (514) 
305.48

>  <exact_molecular_weight>  (514) 
305.24806

>  <molecular_formula>  (514) 
C20H33O2

>  <alogp>  (514) 
4.58

>  <topological_polar_surface_area>  (514) 
40.46

>  <rotatable_bond_count>  (514) 
5

>  <hydrogen_bond_acceptors>  (514) 
2

>  <hydrogen_bond_donors>  (514) 
2

>  <hydrogen_bond_acceptors_lipinski>  (514) 
2

>  <hydrogen_bond_donors_lipinski>  (514) 
2

>  <lipinski_rule_of_five_violations>  (514) 
0

>  <aromatic_rings_count>  (514) 
0

>  <qed_drug_likeliness>  (514) 
0.73

>  <formal_charge>  (514) 
0

>  <fractioncsp3>  (514) 
0.75

>  <number_of_minimal_rings>  (514) 
2

>  <van_der_walls_volume>  (514) 
321.34

>  <contains_sugar>  (514) 
False

>  <contains_ring_sugars>  (514) 
False

>  <contains_linear_sugars>  (514) 
False

>  <murcko_framework>  (514) 
C1=CC2CCCCC2CC1

>  <np_likeness>  (514) 
2.02

>  <chemical_class>  (514) 
Fatty Acyls

>  <chemical_sub_class>  (514) 
Fatty alcohols

>  <chemical_super_class>  (514) 
Lipids and lipid-like molecules

>  <direct_parent_classification>  (514) 
Fatty alcohols

>  <np_classifier_pathway>  (514) 
Terpenoids

>  <np_classifier_superclass>  (514) 
nan

>  <np_classifier_class>  (514) 
nan

>  <np_classifier_is_glycoside>  (514) 
False

>  <organisms>  (514) 
Physalis nicandroides var. attenuata

>  <collections>  (514) 
BIOFACQUIM

>  <dois>  (514) 
10.1021/acs.jnatprod.9b00233

>  <synonyms>  (514) 
(+)-(Z)-labda-8 13-diene-15 16-diol

>  <cas>  (514) 
nan

$$$$

     RDKit          2D

 23 24  0  0  0  0  0  0  0  0999 V2000
   -4.8998   -1.0123    0.0000 C   0  0  0  0  0  0  0  0  0  0  0  0
   -4.3713    0.3915    0.0000 C   0  0  0  0  0  0  0  0  0  0  0  0
   -5.8456    0.6682    0.0000 C   0  0  0  0  0  0  0  0  0  0  0  0
   -4.3549    1.8914    0.0000 C   0  0  0  0  0  0  0  0  0  0  0  0
   -3.0477    2.6271    0.0000 C   0  0  0  0  0  0  0  0  0  0  0  0
   -1.7569    1.8629    0.0000 C   0  0  0  0  0  0  0  0  0  0  0  0
   -1.7734    0.3629    0.0000 C   0  0  0  0  0  0  0  0  0  0  0  0
   -0.4662    1.0986    0.0000 C   0  0  0  0  0  0  0  0  0  0  0  0
   -0.4827   -0.4013    0.0000 C   0  0  0  0  0  3  0  0  0  0  0  0
    0.8245    0.3344    0.0000 C   0  0  0  0  0  0  0  0  0  0  0  0
    2.1152   -0.4298    0.0000 C   0  0  0  0  0  3  0  0  0  0  0  0
    2.0987   -1.9297    0.0000 O   0  0  0  0  0  0  0  0  0  0  0  0
    3.4224    0.3059    0.0000 C   0  0  0  0  0  0  0  0  0  0  0  0
    4.7131   -0.4584    0.0000 C   0  0  0  0  0  0  0  0  0  0  0  0
    6.0203    0.2773    0.0000 C   0  0  0  0  0  0  0  0  0  0  0  0
    7.3111   -0.4869    0.0000 O   0  0  0  0  0  0  0  0  0  0  0  0
    3.4389    1.8058    0.0000 C   0  0  0  0  0  0  0  0  0  0  0  0
    4.7461    2.5415    0.0000 O   0  0  0  0  0  0  0  0  0  0  0  0
   -0.4992   -1.9012    0.0000 C   0  0  0  0  0  0  0  0  0  0  0  0
    0.7915   -2.6654    0.0000 O   0  0  0  0  0  0  0  0  0  0  0  0
   -1.8064   -2.6369    0.0000 C   0  0  0  0  0  0  0  0  0  0  0  0
   -3.0971   -1.8727    0.0000 C   0  0  0  0  0  0  0  0  0  0  0  0
   -3.0806   -0.3727    0.0000 C   0  0  0  0  0  3  0  0  0  0  0  0
  1  2  1  0
  2  3  1  0
  2  4  1  0
  4  5  1  0
  5  6  1  0
  6  7  1  0
  7  8  1  1
  7  9  1  0
  9 10  1  0
 10 11  1  0
 11 12  1  0
 11 13  1  0
 13 14  2  0
 14 15  1  0
 15 16  1  0
 13 17  1  0
 17 18  1  0
  9 19  1  0
 19 20  2  0
 19 21  1  0
 21 22  1  0
 22 23  1  0
 23  2  1  0
 23  7  1  0
M  RAD  3   9   2  11   2  23   2
M  END
>  <identifier>  (515) 
CNP0555681.1

>  <canonical_smiles>  (515) 
CC1(C)CCC[C@]2(C)[C](C[C](O)/C(=C/CO)CO)C(=O)CC[C]12

>  <standard_inchi>  (515) 
InChI=1S/C19H29O4/c1-18(2)8-4-9-19(3)14(15(22)5-6-17(18)19)11-16(23)13(12-21)7-10-20/h7,20-21,23H,4-6,8-12H2,1-3H3/b13-7+/t19-/m1/s1

>  <standard_inchi_key>  (515) 
FTJHOXNCLKKMEY-HBAHQKBISA-N

>  <name>  (515) 
(1R 4aS 8aS)-1-((R E)-2 5-dihydroxy-3-(hydroxymethyl)pent-3-en-1-yl)-5 5 8a-trimethyloctahydronaphthalen-2(1H)-one

>  <iupac_name>  (515) 
(8~{a}~{S})-1-[(~{E})-2,5-dihydroxy-3-(hydroxymethyl)pent-3-enyl]-5,5,8~{a}-trimethyl-4,6,7,8-tetrahydro-3~{H}-naphthalen-2-one

>  <annotation_level>  (515) 
5

>  <total_atom_count>  (515) 
52

>  <heavy_atom_count>  (515) 
23

>  <molecular_weight>  (515) 
321.44

>  <exact_molecular_weight>  (515) 
321.20658

>  <molecular_formula>  (515) 
C19H29O4

>  <alogp>  (515) 
2.92

>  <topological_polar_surface_area>  (515) 
77.76

>  <rotatable_bond_count>  (515) 
5

>  <hydrogen_bond_acceptors>  (515) 
4

>  <hydrogen_bond_donors>  (515) 
3

>  <hydrogen_bond_acceptors_lipinski>  (515) 
4

>  <hydrogen_bond_donors_lipinski>  (515) 
3

>  <lipinski_rule_of_five_violations>  (515) 
0

>  <aromatic_rings_count>  (515) 
0

>  <qed_drug_likeliness>  (515) 
0.73

>  <formal_charge>  (515) 
0

>  <fractioncsp3>  (515) 
0.68

>  <number_of_minimal_rings>  (515) 
2

>  <van_der_walls_volume>  (515) 
316.70

>  <contains_sugar>  (515) 
False

>  <contains_ring_sugars>  (515) 
False

>  <contains_linear_sugars>  (515) 
False

>  <murcko_framework>  (515) 
C1CCC2CCCCC2C1

>  <np_likeness>  (515) 
1.45

>  <chemical_class>  (515) 
Fatty Acyls

>  <chemical_sub_class>  (515) 
Fatty alcohols

>  <chemical_super_class>  (515) 
Lipids and lipid-like molecules

>  <direct_parent_classification>  (515) 
Fatty alcohols

>  <np_classifier_pathway>  (515) 
Terpenoids

>  <np_classifier_superclass>  (515) 
nan

>  <np_classifier_class>  (515) 
nan

>  <np_classifier_is_glycoside>  (515) 
False

>  <organisms>  (515) 
Physalis nicandroides var. attenuata

>  <collections>  (515) 
BIOFACQUIM

>  <dois>  (515) 
10.1021/acs.jnatprod.9b00233

>  <synonyms>  (515) 
(1R 4aS 8aS)-1-((R E)-2 5-dihydroxy-3-(hydroxymethyl)pent-3-en-1-yl)-5 5 8a-trimethyloctahydronaphthalen-2(1H)-one

>  <cas>  (515) 
nan

$$$$

     RDKit          2D

 22 23  0  0  0  0  0  0  0  0999 V2000
   -3.5460    2.1151    0.0000 C   0  0  0  0  0  0  0  0  0  0  0  0
   -3.6102    0.6165    0.0000 C   0  0  0  0  0  0  0  0  0  0  0  0
   -4.9402   -0.0772    0.0000 C   0  0  0  0  0  0  0  0  0  0  0  0
   -6.2059    0.7277    0.0000 C   0  0  0  0  0  0  0  0  0  0  0  0
   -7.5359    0.0340    0.0000 O   0  0  0  0  0  0  0  0  0  0  0  0
   -2.3445   -0.1885    0.0000 C   0  0  0  0  0  3  0  0  0  0  0  0
   -2.4087   -1.6871    0.0000 O   0  0  0  0  0  0  0  0  0  0  0  0
   -1.0145    0.5052    0.0000 C   0  0  0  0  0  0  0  0  0  0  0  0
    0.2512   -0.2997    0.0000 C   0  0  0  0  0  3  0  0  0  0  0  0
    0.1870   -1.7983    0.0000 C   0  0  0  0  0  0  0  0  0  0  0  0
   -1.1430   -2.4920    0.0000 O   0  0  0  0  0  0  0  0  0  0  0  0
    1.4527   -2.6033    0.0000 C   0  0  0  0  0  0  0  0  0  0  0  0
    2.7827   -1.9096    0.0000 C   0  0  0  0  0  0  0  0  0  0  0  0
    2.8469   -0.4109    0.0000 C   0  0  0  0  0  3  0  0  0  0  0  0
    4.1769    0.2828    0.0000 C   0  0  0  0  0  0  0  0  0  0  0  0
    5.6639    0.4797    0.0000 C   0  0  0  0  0  0  0  0  0  0  0  0
    4.6291   -1.1475    0.0000 C   0  0  0  0  0  0  0  0  0  0  0  0
    4.2411    1.7814    0.0000 C   0  0  0  0  0  0  0  0  0  0  0  0
    2.9754    2.5863    0.0000 C   0  0  0  0  0  0  0  0  0  0  0  0
    1.6454    1.8926    0.0000 C   0  0  0  0  0  0  0  0  0  0  0  0
    1.5812    0.3940    0.0000 C   0  0  0  0  0  0  0  0  0  0  0  0
    0.3154    1.1989    0.0000 C   0  0  0  0  0  0  0  0  0  0  0  0
  1  2  1  0
  2  3  2  0
  3  4  1  0
  4  5  1  0
  2  6  1  0
  6  7  1  0
  6  8  1  0
  8  9  1  0
  9 10  1  0
 10 11  2  0
 10 12  1  0
 12 13  1  0
 13 14  1  0
 14 15  1  0
 15 16  1  0
 15 17  1  0
 15 18  1  0
 18 19  1  0
 19 20  1  0
 20 21  1  0
 21 22  1  6
 21  9  1  0
 21 14  1  0
M  RAD  3   6   2   9   2  14   2
M  END
>  <identifier>  (516) 
CNP0525184.1

>  <canonical_smiles>  (516) 
C/C(=C\CO)[C](O)C[C]1C(=O)CC[C]2C(C)(C)CCC[C@]12C

>  <standard_inchi>  (516) 
InChI=1S/C19H29O3/c1-13(8-11-20)16(22)12-14-15(21)6-7-17-18(2,3)9-5-10-19(14,17)4/h8,20,22H,5-7,9-12H2,1-4H3/b13-8+/t19-/m1/s1

>  <standard_inchi_key>  (516) 
PXLZHARPERYPHC-BNOPAZPUSA-N

>  <name>  (516) 
(1R 4aS 8aS)-1-((R E)-2 5-dihydroxy-3-methylpent-3-en-1-yl)-5 5 8a-trimethyloctahydronaphthalen-2(1H)-one

>  <iupac_name>  (516) 
(8~{a}~{S})-1-[(~{E})-2,5-dihydroxy-3-methyl-pent-3-enyl]-5,5,8~{a}-trimethyl-4,6,7,8-tetrahydro-3~{H}-naphthalen-2-one

>  <annotation_level>  (516) 
5

>  <total_atom_count>  (516) 
51

>  <heavy_atom_count>  (516) 
22

>  <molecular_weight>  (516) 
305.44

>  <exact_molecular_weight>  (516) 
305.21167

>  <molecular_formula>  (516) 
C19H29O3

>  <alogp>  (516) 
3.95

>  <topological_polar_surface_area>  (516) 
57.53

>  <rotatable_bond_count>  (516) 
4

>  <hydrogen_bond_acceptors>  (516) 
3

>  <hydrogen_bond_donors>  (516) 
2

>  <hydrogen_bond_acceptors_lipinski>  (516) 
3

>  <hydrogen_bond_donors_lipinski>  (516) 
2

>  <lipinski_rule_of_five_violations>  (516) 
0

>  <aromatic_rings_count>  (516) 
0

>  <qed_drug_likeliness>  (516) 
0.83

>  <formal_charge>  (516) 
0

>  <fractioncsp3>  (516) 
0.68

>  <number_of_minimal_rings>  (516) 
2

>  <van_der_walls_volume>  (516) 
308.64

>  <contains_sugar>  (516) 
False

>  <contains_ring_sugars>  (516) 
False

>  <contains_linear_sugars>  (516) 
False

>  <murcko_framework>  (516) 
C1CCC2CCCCC2C1

>  <np_likeness>  (516) 
1.37

>  <chemical_class>  (516) 
Fatty Acyls

>  <chemical_sub_class>  (516) 
Fatty alcohols

>  <chemical_super_class>  (516) 
Lipids and lipid-like molecules

>  <direct_parent_classification>  (516) 
Fatty alcohols

>  <np_classifier_pathway>  (516) 
Terpenoids

>  <np_classifier_superclass>  (516) 
nan

>  <np_classifier_class>  (516) 
nan

>  <np_classifier_is_glycoside>  (516) 
False

>  <organisms>  (516) 
Physalis nicandroides var. attenuata

>  <collections>  (516) 
BIOFACQUIM

>  <dois>  (516) 
10.1021/acs.jnatprod.9b00233

>  <synonyms>  (516) 
(1R 4aS 8aS)-1-((R E)-2 5-dihydroxy-3-methylpent-3-en-1-yl)-5 5 8a-trimethyloctahydronaphthalen-2(1H)-one

>  <cas>  (516) 
nan

$$$$

     RDKit          2D

 22 23  0  0  0  0  0  0  0  0999 V2000
   -3.5460    2.1151    0.0000 C   0  0  0  0  0  0  0  0  0  0  0  0
   -3.6102    0.6165    0.0000 C   0  0  0  0  0  0  0  0  0  0  0  0
   -4.9402   -0.0772    0.0000 C   0  0  0  0  0  0  0  0  0  0  0  0
   -6.2059    0.7277    0.0000 C   0  0  0  0  0  0  0  0  0  0  0  0
   -7.5359    0.0340    0.0000 O   0  0  0  0  0  0  0  0  0  0  0  0
   -2.3445   -0.1885    0.0000 C   0  0  0  0  0  0  0  0  0  0  0  0
   -2.4087   -1.6871    0.0000 O   0  0  0  0  0  0  0  0  0  0  0  0
   -1.0145    0.5052    0.0000 C   0  0  0  0  0  0  0  0  0  0  0  0
    0.2512   -0.2997    0.0000 C   0  0  0  0  0  3  0  0  0  0  0  0
    0.1870   -1.7983    0.0000 C   0  0  0  0  0  0  0  0  0  0  0  0
   -1.1430   -2.4920    0.0000 O   0  0  0  0  0  0  0  0  0  0  0  0
    1.4527   -2.6033    0.0000 C   0  0  0  0  0  0  0  0  0  0  0  0
    2.7827   -1.9096    0.0000 C   0  0  0  0  0  0  0  0  0  0  0  0
    2.8469   -0.4109    0.0000 C   0  0  0  0  0  3  0  0  0  0  0  0
    4.1769    0.2828    0.0000 C   0  0  0  0  0  0  0  0  0  0  0  0
    5.6639    0.4797    0.0000 C   0  0  0  0  0  0  0  0  0  0  0  0
    4.6291   -1.1475    0.0000 C   0  0  0  0  0  0  0  0  0  0  0  0
    4.2411    1.7814    0.0000 C   0  0  0  0  0  0  0  0  0  0  0  0
    2.9754    2.5863    0.0000 C   0  0  0  0  0  0  0  0  0  0  0  0
    1.6454    1.8926    0.0000 C   0  0  0  0  0  0  0  0  0  0  0  0
    1.5812    0.3940    0.0000 C   0  0  0  0  0  0  0  0  0  0  0  0
    0.3154    1.1989    0.0000 C   0  0  0  0  0  0  0  0  0  0  0  0
  1  2  1  0
  2  3  2  0
  3  4  1  0
  4  5  1  0
  2  6  1  0
  6  7  2  0
  6  8  1  0
  8  9  1  0
  9 10  1  0
 10 11  2  0
 10 12  1  0
 12 13  1  0
 13 14  1  0
 14 15  1  0
 15 16  1  0
 15 17  1  0
 15 18  1  0
 18 19  1  0
 19 20  1  0
 20 21  1  0
 21 22  1  6
 21  9  1  0
 21 14  1  0
M  RAD  2   9   2  14   2
M  END
>  <identifier>  (517) 
CNP0589140.1

>  <canonical_smiles>  (517) 
C/C(=C\CO)C(=O)C[C]1C(=O)CC[C]2C(C)(C)CCC[C@]12C

>  <standard_inchi>  (517) 
InChI=1S/C19H28O3/c1-13(8-11-20)16(22)12-14-15(21)6-7-17-18(2,3)9-5-10-19(14,17)4/h8,20H,5-7,9-12H2,1-4H3/b13-8+/t19-/m1/s1

>  <standard_inchi_key>  (517) 
JPSCSJCOBLXGIA-BNOPAZPUSA-N

>  <name>  (517) 
(1R 4aS 8aS)-1-((E)-5-hydroxy-3-methyl-2-oxopent-3-en-1-yl)-5 5 8a-trimethyloctahydronaphthalen-2(1H)-one

>  <iupac_name>  (517) 
(8~{a}~{S})-1-[(~{E})-5-hydroxy-3-methyl-2-oxo-pent-3-enyl]-5,5,8~{a}-trimethyl-4,6,7,8-tetrahydro-3~{H}-naphthalen-2-one

>  <annotation_level>  (517) 
5

>  <total_atom_count>  (517) 
50

>  <heavy_atom_count>  (517) 
22

>  <molecular_weight>  (517) 
304.43

>  <exact_molecular_weight>  (517) 
304.20384

>  <molecular_formula>  (517) 
C19H28O3

>  <alogp>  (517) 
3.61

>  <topological_polar_surface_area>  (517) 
54.37

>  <rotatable_bond_count>  (517) 
4

>  <hydrogen_bond_acceptors>  (517) 
3

>  <hydrogen_bond_donors>  (517) 
1

>  <hydrogen_bond_acceptors_lipinski>  (517) 
3

>  <hydrogen_bond_donors_lipinski>  (517) 
1

>  <lipinski_rule_of_five_violations>  (517) 
0

>  <aromatic_rings_count>  (517) 
0

>  <qed_drug_likeliness>  (517) 
0.81

>  <formal_charge>  (517) 
0

>  <fractioncsp3>  (517) 
0.68

>  <number_of_minimal_rings>  (517) 
2

>  <van_der_walls_volume>  (517) 
304.87

>  <contains_sugar>  (517) 
False

>  <contains_ring_sugars>  (517) 
False

>  <contains_linear_sugars>  (517) 
False

>  <murcko_framework>  (517) 
C1CCC2CCCCC2C1

>  <np_likeness>  (517) 
1.46

>  <chemical_class>  (517) 
Fatty Acyls

>  <chemical_sub_class>  (517) 
Fatty alcohols

>  <chemical_super_class>  (517) 
Lipids and lipid-like molecules

>  <direct_parent_classification>  (517) 
Fatty alcohols

>  <np_classifier_pathway>  (517) 
Terpenoids

>  <np_classifier_superclass>  (517) 
Sesquiterpenoids

>  <np_classifier_class>  (517) 
nan

>  <np_classifier_is_glycoside>  (517) 
False

>  <organisms>  (517) 
Physalis nicandroides var. attenuata

>  <collections>  (517) 
BIOFACQUIM

>  <dois>  (517) 
10.1021/acs.jnatprod.9b00233

>  <synonyms>  (517) 
(1R 4aS 8aS)-1-((E)-5-hydroxy-3-methyl-2-oxopent-3-en-1-yl)-5 5 8a-trimethyloctahydronaphthalen-2(1H)-one

>  <cas>  (517) 
nan

$$$$

     RDKit          2D

 21 23  0  0  0  0  0  0  0  0999 V2000
   -4.1186    2.5915    0.0000 C   0  0  0  0  0  0  0  0  0  0  0  0
   -4.0335    1.0939    0.0000 C   0  0  0  0  0  0  0  0  0  0  0  0
   -2.7719    0.2825    0.0000 C   0  0  0  0  0  0  0  0  0  0  0  0
   -1.3739    0.8263    0.0000 C   0  0  0  0  0  0  0  0  0  0  0  0
   -0.2041   -0.1126    0.0000 C   0  0  0  0  0  3  0  0  0  0  0  0
   -0.4322   -1.5951    0.0000 C   0  0  0  0  0  0  0  0  0  0  0  0
   -1.8302   -2.1388    0.0000 O   0  0  0  0  0  0  0  0  0  0  0  0
    0.7377   -2.5340    0.0000 C   0  0  0  0  0  0  0  0  0  0  0  0
    2.1357   -1.9902    0.0000 C   0  0  0  0  0  0  0  0  0  0  0  0
    2.3638   -0.5077    0.0000 C   0  0  0  0  0  3  0  0  0  0  0  0
    3.7618    0.0360    0.0000 C   0  0  0  0  0  0  0  0  0  0  0  0
    5.2614    0.0688    0.0000 C   0  0  0  0  0  0  0  0  0  0  0  0
    4.0545   -1.4351    0.0000 C   0  0  0  0  0  0  0  0  0  0  0  0
    3.9899    1.5186    0.0000 C   0  0  0  0  0  0  0  0  0  0  0  0
    2.8200    2.4574    0.0000 C   0  0  0  0  0  0  0  0  0  0  0  0
    1.4220    1.9137    0.0000 C   0  0  0  0  0  0  0  0  0  0  0  0
    1.1939    0.4311    0.0000 C   0  0  0  0  0  0  0  0  0  0  0  0
    0.0240    1.3700    0.0000 C   0  0  0  0  0  0  0  0  0  0  0  0
   -3.1538   -1.1681    0.0000 O   0  0  0  0  0  0  0  0  0  0  0  0
   -4.6514   -1.2532    0.0000 C   0  0  0  0  0  0  0  0  0  0  0  0
   -5.1951    0.1448    0.0000 C   0  0  0  0  0  0  0  0  0  0  0  0
  1  2  1  0
  2  3  2  0
  3  4  1  0
  4  5  1  0
  5  6  1  0
  6  7  2  0
  6  8  1  0
  8  9  1  0
  9 10  1  0
 10 11  1  0
 11 12  1  0
 11 13  1  0
 11 14  1  0
 14 15  1  0
 15 16  1  0
 16 17  1  0
 17 18  1  6
  3 19  1  0
 19 20  1  0
 20 21  2  0
 21  2  1  0
 17  5  1  0
 17 10  1  0
M  RAD  2   5   2  10   2
M  END
>  <identifier>  (518) 
CNP0523922.1

>  <canonical_smiles>  (518) 
CC1=C(C[C]2C(=O)CC[C]3C(C)(C)CCC[C@]23C)OC=C1

>  <standard_inchi>  (518) 
InChI=1S/C19H26O2/c1-13-8-11-21-16(13)12-14-15(20)6-7-17-18(2,3)9-5-10-19(14,17)4/h8,11H,5-7,9-10,12H2,1-4H3/t19-/m1/s1

>  <standard_inchi_key>  (518) 
RFCPMWOECBUZBE-LJQANCHMSA-N

>  <name>  (518) 
(1R 4aS 8aS)-5 5 8a-trimethyl-1-((3-methylfuran-2-yl)methyl)octahydronaphthalen-2(1H)-one

>  <iupac_name>  (518) 
(8~{a}~{S})-5,5,8~{a}-trimethyl-1-[(3-methyl-2-furyl)methyl]-4,6,7,8-tetrahydro-3~{H}-naphthalen-2-one

>  <annotation_level>  (518) 
5

>  <total_atom_count>  (518) 
47

>  <heavy_atom_count>  (518) 
21

>  <molecular_weight>  (518) 
286.41

>  <exact_molecular_weight>  (518) 
286.19328

>  <molecular_formula>  (518) 
C19H26O2

>  <alogp>  (518) 
4.86

>  <topological_polar_surface_area>  (518) 
30.21

>  <rotatable_bond_count>  (518) 
2

>  <hydrogen_bond_acceptors>  (518) 
2

>  <hydrogen_bond_donors>  (518) 
0

>  <hydrogen_bond_acceptors_lipinski>  (518) 
2

>  <hydrogen_bond_donors_lipinski>  (518) 
0

>  <lipinski_rule_of_five_violations>  (518) 
0

>  <aromatic_rings_count>  (518) 
1

>  <qed_drug_likeliness>  (518) 
0.78

>  <formal_charge>  (518) 
0

>  <fractioncsp3>  (518) 
0.63

>  <number_of_minimal_rings>  (518) 
3

>  <van_der_walls_volume>  (518) 
286.36

>  <contains_sugar>  (518) 
False

>  <contains_ring_sugars>  (518) 
False

>  <contains_linear_sugars>  (518) 
False

>  <murcko_framework>  (518) 
o1cccc1CC2CCCC3CCCCC23

>  <np_likeness>  (518) 
0.92

>  <chemical_class>  (518) 
Furans

>  <chemical_sub_class>  (518) 
Furans

>  <chemical_super_class>  (518) 
Organoheterocyclic compounds

>  <direct_parent_classification>  (518) 
Furans

>  <np_classifier_pathway>  (518) 
Terpenoids

>  <np_classifier_superclass>  (518) 
Diterpenoids

>  <np_classifier_class>  (518) 
Secolabdane diterpenoids

>  <np_classifier_is_glycoside>  (518) 
False

>  <organisms>  (518) 
Physalis nicandroides var. attenuata

>  <collections>  (518) 
BIOFACQUIM

>  <dois>  (518) 
10.1021/acs.jnatprod.9b00233

>  <synonyms>  (518) 
(1R 4aS 8aS)-5 5 8a-trimethyl-1-((3-methylfuran-2-yl)methyl)octahydronaphthalen-2(1H)-one

>  <cas>  (518) 
nan

$$$$

     RDKit          2D

 33 35  0  0  0  0  0  0  0  0999 V2000
   -0.6592    3.5825    0.0000 C   0  0  0  0  0  0  0  0  0  0  0  0
   -1.1488    2.1646    0.0000 C   0  0  0  0  0  0  0  0  0  0  0  0
   -2.6215    1.8797    0.0000 C   0  0  0  0  0  0  0  0  0  0  0  0
   -3.6046    3.0126    0.0000 C   0  0  0  0  0  0  0  0  0  0  0  0
   -5.0773    2.7276    0.0000 O   0  0  0  0  0  0  0  0  0  0  0  0
   -0.1657    1.0317    0.0000 C   0  0  0  0  0  3  0  0  0  0  0  0
    1.3070    1.3167    0.0000 C   0  0  0  0  0  0  0  0  0  0  0  0
    2.2901    0.1838    0.0000 C   0  0  0  0  0  3  0  0  0  0  0  0
    1.8006   -1.2340    0.0000 C   0  0  0  0  0  0  0  0  0  0  0  0
    0.3279   -1.5190    0.0000 O   0  0  0  0  0  0  0  0  0  0  0  0
    2.7837   -2.3669    0.0000 C   0  0  0  0  0  0  0  0  0  0  0  0
    4.2564   -2.0820    0.0000 C   0  0  0  0  0  0  0  0  0  0  0  0
    4.7460   -0.6641    0.0000 C   0  0  0  0  0  3  0  0  0  0  0  0
    6.2186   -0.3792    0.0000 C   0  0  0  0  0  0  0  0  0  0  0  0
    7.7000   -0.6151    0.0000 C   0  0  0  0  0  0  0  0  0  0  0  0
    6.2435   -1.8789    0.0000 C   0  0  0  0  0  0  0  0  0  0  0  0
    6.7082    1.0387    0.0000 C   0  0  0  0  0  0  0  0  0  0  0  0
    5.7251    2.1716    0.0000 C   0  0  0  0  0  0  0  0  0  0  0  0
    4.2524    1.8866    0.0000 C   0  0  0  0  0  0  0  0  0  0  0  0
    3.7628    0.4688    0.0000 C   0  0  0  0  0  0  0  0  0  0  0  0
    2.7797    1.6017    0.0000 C   0  0  0  0  0  0  0  0  0  0  0  0
   -0.6552   -0.3861    0.0000 O   0  0  0  0  0  0  0  0  0  0  0  0
   -2.1279   -0.6711    0.0000 C   0  0  0  0  0  3  0  0  0  0  0  0
   -3.1110    0.4618    0.0000 O   0  0  0  0  0  0  0  0  0  0  0  0
   -4.5837    0.1769    0.0000 C   0  0  0  0  0  3  0  0  0  0  0  0
   -5.5668    1.3098    0.0000 C   0  0  0  0  0  0  0  0  0  0  0  0
   -7.0395    1.0248    0.0000 O   0  0  0  0  0  0  0  0  0  0  0  0
   -5.0733   -1.2410    0.0000 C   0  0  0  0  0  3  0  0  0  0  0  0
   -6.5459   -1.5260    0.0000 O   0  0  0  0  0  0  0  0  0  0  0  0
   -4.0901   -2.3739    0.0000 C   0  0  0  0  0  3  0  0  0  0  0  0
   -4.5797   -3.7918    0.0000 O   0  0  0  0  0  0  0  0  0  0  0  0
   -2.6175   -2.0889    0.0000 C   0  0  0  0  0  3  0  0  0  0  0  0
   -1.6343   -3.2218    0.0000 O   0  0  0  0  0  0  0  0  0  0  0  0
  1  2  1  0
  2  3  2  0
  3  4  1  0
  4  5  1  0
  2  6  1  0
  6  7  1  0
  7  8  1  0
  8  9  1  0
  9 10  2  0
  9 11  1  0
 11 12  1  0
 12 13  1  0
 13 14  1  0
 14 15  1  0
 14 16  1  0
 14 17  1  0
 17 18  1  0
 18 19  1  0
 19 20  1  0
 20 21  1  6
  6 22  1  0
 22 23  1  0
 23 24  1  0
 24 25  1  0
 25 26  1  0
 26 27  1  0
 25 28  1  0
 28 29  1  0
 28 30  1  0
 30 31  1  0
 30 32  1  0
 32 33  1  0
 20  8  1  0
 32 23  1  0
 20 13  1  0
M  RAD  8   6   2   8   2  13   2  23   2  25   2  28   2  30   2  32   2
M  END
>  <identifier>  (519) 
CNP0509828.1

>  <canonical_smiles>  (519) 
C/C(=C\CO)[C](C[C]1C(=O)CC[C]2C(C)(C)CCC[C@]12C)O[C]1O[C](CO)[C](O)[C](O)[C]1O

>  <standard_inchi>  (519) 
InChI=1S/C25H34O8/c1-14(8-11-26)17(32-23-22(31)21(30)20(29)18(13-27)33-23)12-15-16(28)6-7-19-24(2,3)9-5-10-25(15,19)4/h8,26-27,29-31H,5-7,9-13H2,1-4H3/b14-8+/t25-/m1/s1

>  <standard_inchi_key>  (519) 
PZFJWKZZNZOYSY-WCLOKENTSA-N

>  <name>  (519) 
(1R 4aS 8aS)-1-((S E)-5-hydroxy-3-methyl-2-(((2R 3R 4S 5S 6R)-3 4 5-trihydroxy-6-(hydroxymethyl)tetrahydro-2H-pyran-2-yl)oxy)pent-3-en-1-yl)-5 5 8a-trimethyloctahydronaphthalen-2(1H)-one

>  <iupac_name>  (519) 
(8~{a}~{S})-1-[(~{E})-5-hydroxy-3-methyl-2-[3,4,5-trihydroxy-6-(hydroxymethyl)pyran-2-yl]oxy-pent-3-enyl]-5,5,8~{a}-trimethyl-4,6,7,8-tetrahydro-3~{H}-naphthalen-2-one

>  <annotation_level>  (519) 
5

>  <total_atom_count>  (519) 
67

>  <heavy_atom_count>  (519) 
33

>  <molecular_weight>  (519) 
462.54

>  <exact_molecular_weight>  (519) 
462.22537

>  <molecular_formula>  (519) 
C25H34O8

>  <alogp>  (519) 
3.35

>  <topological_polar_surface_area>  (519) 
136.68

>  <rotatable_bond_count>  (519) 
7

>  <hydrogen_bond_acceptors>  (519) 
8

>  <hydrogen_bond_donors>  (519) 
5

>  <hydrogen_bond_acceptors_lipinski>  (519) 
8

>  <hydrogen_bond_donors_lipinski>  (519) 
5

>  <lipinski_rule_of_five_violations>  (519) 
0

>  <aromatic_rings_count>  (519) 
0

>  <qed_drug_likeliness>  (519) 
0.39

>  <formal_charge>  (519) 
0

>  <fractioncsp3>  (519) 
0.56

>  <number_of_minimal_rings>  (519) 
3

>  <van_der_walls_volume>  (519) 
428.94

>  <contains_sugar>  (519) 
True

>  <contains_ring_sugars>  (519) 
True

>  <contains_linear_sugars>  (519) 
False

>  <murcko_framework>  (519) 
O1CCCCC1OCCC2CCCC3CCCCC23

>  <np_likeness>  (519) 
0.99

>  <chemical_class>  (519) 
Fatty Acyls

>  <chemical_sub_class>  (519) 
Fatty acyl glycosides

>  <chemical_super_class>  (519) 
Lipids and lipid-like molecules

>  <direct_parent_classification>  (519) 
Fatty acyl glycosides of mono- and disaccharides

>  <np_classifier_pathway>  (519) 
Terpenoids

>  <np_classifier_superclass>  (519) 
nan

>  <np_classifier_class>  (519) 
nan

>  <np_classifier_is_glycoside>  (519) 
True

>  <organisms>  (519) 
Physalis nicandroides var. attenuata

>  <collections>  (519) 
BIOFACQUIM

>  <dois>  (519) 
10.1021/acs.jnatprod.9b00233

>  <synonyms>  (519) 
(1R 4aS 8aS)-1-((S E)-5-hydroxy-3-methyl-2-(((2R 3R 4S 5S 6R)-3 4 5-trihydroxy-6-(hydroxymethyl)tetrahydro-2H-pyran-2-yl)oxy)pent-3-en-1-yl)-5 5 8a-trimethyloctahydronaphthalen-2(1H)-one

>  <cas>  (519) 
nan

$$$$

     RDKit          2D

 23 24  0  0  0  0  0  0  0  0999 V2000
   -4.8129   -1.2209    0.0000 C   0  0  0  0  0  0  0  0  0  0  0  0
   -4.4029    0.2220    0.0000 C   0  0  0  0  0  0  0  0  0  0  0  0
   -5.8950    0.3752    0.0000 C   0  0  0  0  0  0  0  0  0  0  0  0
   -4.5111    1.7181    0.0000 C   0  0  0  0  0  0  0  0  0  0  0  0
   -3.2696    2.5598    0.0000 C   0  0  0  0  0  0  0  0  0  0  0  0
   -1.9198    1.9055    0.0000 C   0  0  0  0  0  0  0  0  0  0  0  0
   -1.8116    0.4094    0.0000 C   0  0  0  0  0  0  0  0  0  0  0  0
   -0.5700    1.2512    0.0000 C   0  0  0  0  0  0  0  0  0  0  0  0
   -0.4618   -0.2449    0.0000 C   0  0  0  0  0  3  0  0  0  0  0  0
    0.7797    0.5969    0.0000 C   0  0  0  0  0  0  0  0  0  0  0  0
    2.1295   -0.0574    0.0000 C   0  0  0  0  0  3  0  0  0  0  0  0
    2.2377   -1.5535    0.0000 O   0  0  0  0  0  0  0  0  0  0  0  0
    3.3710    0.7844    0.0000 C   0  0  0  0  0  0  0  0  0  0  0  0
    3.2628    2.2805    0.0000 O   0  0  0  0  0  0  0  0  0  0  0  0
    4.7208    0.1301    0.0000 C   0  0  0  0  0  0  0  0  0  0  0  0
    4.8290   -1.3660    0.0000 O   0  0  0  0  0  0  0  0  0  0  0  0
    5.9623    0.9718    0.0000 C   0  0  0  0  0  0  0  0  0  0  0  0
    7.3121    0.3175    0.0000 O   0  0  0  0  0  0  0  0  0  0  0  0
   -0.3536   -1.7410    0.0000 C   0  0  0  0  0  0  0  0  0  0  0  0
    0.9962   -2.3953    0.0000 O   0  0  0  0  0  0  0  0  0  0  0  0
   -1.5951   -2.5827    0.0000 C   0  0  0  0  0  0  0  0  0  0  0  0
   -2.9449   -1.9284    0.0000 C   0  0  0  0  0  0  0  0  0  0  0  0
   -3.0531   -0.4323    0.0000 C   0  0  0  0  0  3  0  0  0  0  0  0
  1  2  1  0
  2  3  1  0
  2  4  1  0
  4  5  1  0
  5  6  1  0
  6  7  1  0
  7  8  1  1
  7  9  1  0
  9 10  1  0
 10 11  1  0
 11 12  1  0
 11 13  1  0
 13 14  2  0
 13 15  1  0
 15 16  1  0
 15 17  1  0
 17 18  1  0
  9 19  1  0
 19 20  2  0
 19 21  1  0
 21 22  1  0
 22 23  1  0
 23  2  1  0
 23  7  1  0
M  RAD  3   9   2  11   2  23   2
M  END
>  <identifier>  (520) 
CNP0587899.1

>  <canonical_smiles>  (520) 
CC1(C)CCC[C@]2(C)[C](C[C](O)C(=O)C(O)CO)C(=O)CC[C]12

>  <standard_inchi>  (520) 
InChI=1S/C18H27O5/c1-17(2)7-4-8-18(3)11(12(20)5-6-15(17)18)9-13(21)16(23)14(22)10-19/h14,19,21-22H,4-10H2,1-3H3/t14?,18-/m1/s1

>  <standard_inchi_key>  (520) 
AJYJSLJEUQWXEO-XPKAQORNSA-N

>  <name>  (520) 
(1R 4aS 8aS)-5 5 8a-trimethyl-1-((2R)-2 4 5-trihydroxy-3-oxopentyl)octahydronaphthalen-2(1H)-one

>  <iupac_name>  (520) 
(8~{a}~{S})-5,5,8~{a}-trimethyl-1-(2,4,5-trihydroxy-3-oxo-pentyl)-4,6,7,8-tetrahydro-3~{H}-naphthalen-2-one

>  <annotation_level>  (520) 
5

>  <total_atom_count>  (520) 
50

>  <heavy_atom_count>  (520) 
23

>  <molecular_weight>  (520) 
323.41

>  <exact_molecular_weight>  (520) 
323.18585

>  <molecular_formula>  (520) 
C18H27O5

>  <alogp>  (520) 
1.93

>  <topological_polar_surface_area>  (520) 
94.83

>  <rotatable_bond_count>  (520) 
5

>  <hydrogen_bond_acceptors>  (520) 
5

>  <hydrogen_bond_donors>  (520) 
3

>  <hydrogen_bond_acceptors_lipinski>  (520) 
5

>  <hydrogen_bond_donors_lipinski>  (520) 
3

>  <lipinski_rule_of_five_violations>  (520) 
0

>  <aromatic_rings_count>  (520) 
0

>  <qed_drug_likeliness>  (520) 
0.72

>  <formal_charge>  (520) 
0

>  <fractioncsp3>  (520) 
0.72

>  <number_of_minimal_rings>  (520) 
2

>  <van_der_walls_volume>  (520) 
309.32

>  <contains_sugar>  (520) 
True

>  <contains_ring_sugars>  (520) 
False

>  <contains_linear_sugars>  (520) 
True

>  <murcko_framework>  (520) 
C1CCC2CCCCC2C1

>  <np_likeness>  (520) 
1.06

>  <chemical_class>  (520) 
Fatty Acyls

>  <chemical_sub_class>  (520) 
Fatty alcohols

>  <chemical_super_class>  (520) 
Lipids and lipid-like molecules

>  <direct_parent_classification>  (520) 
Fatty alcohols

>  <np_classifier_pathway>  (520) 
Terpenoids

>  <np_classifier_superclass>  (520) 
Diterpenoids

>  <np_classifier_class>  (520) 
Norpimarane and Norisopimarane diterpenoids

>  <np_classifier_is_glycoside>  (520) 
False

>  <organisms>  (520) 
Physalis nicandroides var. attenuata

>  <collections>  (520) 
BIOFACQUIM

>  <dois>  (520) 
10.1021/acs.jnatprod.9b00233

>  <synonyms>  (520) 
(1R 4aS 8aS)-5 5 8a-trimethyl-1-((2R)-2 4 5-trihydroxy-3-oxopentyl)octahydronaphthalen-2(1H)-one

>  <cas>  (520) 
nan

$$$$

     RDKit          2D

 22 23  0  0  0  0  0  0  0  0999 V2000
   -6.2823    1.0622    0.0000 C   0  0  0  0  0  0  0  0  0  0  0  0
   -5.0511    0.2055    0.0000 C   0  0  0  0  0  0  0  0  0  0  0  0
   -5.1773   -1.2892    0.0000 O   0  0  0  0  0  0  0  0  0  0  0  0
   -3.6935    0.8435    0.0000 C   0  0  0  0  0  0  0  0  0  0  0  0
   -3.5672    2.3381    0.0000 O   0  0  0  0  0  0  0  0  0  0  0  0
   -2.4622   -0.0133    0.0000 C   0  0  0  0  0  3  0  0  0  0  0  0
   -2.5885   -1.5079    0.0000 O   0  0  0  0  0  0  0  0  0  0  0  0
   -1.1046    0.6247    0.0000 C   0  0  0  0  0  0  0  0  0  0  0  0
    0.1266   -0.2320    0.0000 C   0  0  0  0  0  3  0  0  0  0  0  0
    0.0004   -1.7267    0.0000 C   0  0  0  0  0  0  0  0  0  0  0  0
   -1.3572   -2.3646    0.0000 O   0  0  0  0  0  0  0  0  0  0  0  0
    1.2316   -2.5834    0.0000 C   0  0  0  0  0  0  0  0  0  0  0  0
    2.5892   -1.9454    0.0000 C   0  0  0  0  0  0  0  0  0  0  0  0
    2.7155   -0.4507    0.0000 C   0  0  0  0  0  3  0  0  0  0  0  0
    4.0731    0.1873    0.0000 C   0  0  0  0  0  0  0  0  0  0  0  0
    5.5670    0.3224    0.0000 C   0  0  0  0  0  0  0  0  0  0  0  0
    4.4656   -1.2605    0.0000 C   0  0  0  0  0  0  0  0  0  0  0  0
    4.1993    1.6819    0.0000 C   0  0  0  0  0  0  0  0  0  0  0  0
    2.9681    2.5386    0.0000 C   0  0  0  0  0  0  0  0  0  0  0  0
    1.6105    1.9007    0.0000 C   0  0  0  0  0  0  0  0  0  0  0  0
    1.4842    0.4060    0.0000 C   0  0  0  0  0  0  0  0  0  0  0  0
    0.2529    1.2627    0.0000 C   0  0  0  0  0  0  0  0  0  0  0  0
  1  2  1  0
  2  3  2  0
  2  4  1  0
  4  5  2  0
  4  6  1  0
  6  7  1  0
  6  8  1  0
  8  9  1  0
  9 10  1  0
 10 11  2  0
 10 12  1  0
 12 13  1  0
 13 14  1  0
 14 15  1  0
 15 16  1  0
 15 17  1  0
 15 18  1  0
 18 19  1  0
 19 20  1  0
 20 21  1  0
 21 22  1  6
 21  9  1  0
 21 14  1  0
M  RAD  3   6   2   9   2  14   2
M  END
>  <identifier>  (521) 
CNP0489116.1

>  <canonical_smiles>  (521) 
CC(=O)C(=O)[C](O)C[C]1C(=O)CC[C]2C(C)(C)CCC[C@]12C

>  <standard_inchi>  (521) 
InChI=1S/C18H25O4/c1-11(19)16(22)14(21)10-12-13(20)6-7-15-17(2,3)8-5-9-18(12,15)4/h21H,5-10H2,1-4H3/t18-/m1/s1

>  <standard_inchi_key>  (521) 
QUDGWPVCHCYVDJ-GOSISDBHSA-N

>  <name>  (521) 
(R)-4-hydroxy-5-((1R 4aS 8aS)-5 5 8a-trimethyl-2-oxodecahydronaphthalen-1-yl)pentane-2 3-dione

>  <iupac_name>  (521) 
5-[(8~{a}~{S})-5,5,8~{a}-trimethyl-2-oxo-4,6,7,8-tetrahydro-3~{H}-naphthalen-1-yl]-4-hydroxy-pentane-2,3-dione

>  <annotation_level>  (521) 
5

>  <total_atom_count>  (521) 
47

>  <heavy_atom_count>  (521) 
22

>  <molecular_weight>  (521) 
305.39

>  <exact_molecular_weight>  (521) 
305.17528

>  <molecular_formula>  (521) 
C18H25O4

>  <alogp>  (521) 
3.17

>  <topological_polar_surface_area>  (521) 
71.44

>  <rotatable_bond_count>  (521) 
4

>  <hydrogen_bond_acceptors>  (521) 
4

>  <hydrogen_bond_donors>  (521) 
1

>  <hydrogen_bond_acceptors_lipinski>  (521) 
4

>  <hydrogen_bond_donors_lipinski>  (521) 
1

>  <lipinski_rule_of_five_violations>  (521) 
0

>  <aromatic_rings_count>  (521) 
0

>  <qed_drug_likeliness>  (521) 
0.81

>  <formal_charge>  (521) 
0

>  <fractioncsp3>  (521) 
0.67

>  <number_of_minimal_rings>  (521) 
2

>  <van_der_walls_volume>  (521) 
296.06

>  <contains_sugar>  (521) 
False

>  <contains_ring_sugars>  (521) 
False

>  <contains_linear_sugars>  (521) 
False

>  <murcko_framework>  (521) 
C1CCC2CCCCC2C1

>  <np_likeness>  (521) 
0.79

>  <chemical_class>  (521) 
Organooxygen compounds

>  <chemical_sub_class>  (521) 
Carbonyl compounds

>  <chemical_super_class>  (521) 
Organic oxygen compounds

>  <direct_parent_classification>  (521) 
Alpha-diketones

>  <np_classifier_pathway>  (521) 
Terpenoids

>  <np_classifier_superclass>  (521) 
nan

>  <np_classifier_class>  (521) 
nan

>  <np_classifier_is_glycoside>  (521) 
False

>  <organisms>  (521) 
Physalis nicandroides var. attenuata

>  <collections>  (521) 
BIOFACQUIM

>  <dois>  (521) 
10.1021/acs.jnatprod.9b00233

>  <synonyms>  (521) 
(R)-4-hydroxy-5-((1R 4aS 8aS)-5 5 8a-trimethyl-2-oxodecahydronaphthalen-1-yl)pentane-2 3-dione

>  <cas>  (521) 
nan

$$$$

     RDKit          2D

 23 24  0  0  0  0  0  0  0  0999 V2000
   -4.7478   -1.1309    0.0000 C   0  0  0  0  0  0  0  0  0  0  0  0
   -4.3176    0.3060    0.0000 C   0  0  0  0  0  0  0  0  0  0  0  0
   -5.8074    0.4802    0.0000 C   0  0  0  0  0  0  0  0  0  0  0  0
   -4.4047    1.8035    0.0000 C   0  0  0  0  0  0  0  0  0  0  0  0
   -3.1515    2.6277    0.0000 C   0  0  0  0  0  0  0  0  0  0  0  0
   -1.8110    1.9545    0.0000 C   0  0  0  0  0  0  0  0  0  0  0  0
   -1.7239    0.4570    0.0000 C   0  0  0  0  0  0  0  0  0  0  0  0
   -0.4706    1.2813    0.0000 C   0  0  0  0  0  0  0  0  0  0  0  0
   -2.9771   -0.3672    0.0000 C   0  0  0  0  0  3  0  0  0  0  0  0
   -2.8900   -1.8647    0.0000 C   0  0  0  0  0  0  0  0  0  0  0  0
   -1.5495   -2.5379    0.0000 C   0  0  0  0  0  0  0  0  0  0  0  0
   -0.2963   -1.7137    0.0000 C   0  0  0  0  0  0  0  0  0  0  0  0
    1.1633   -1.3678    0.0000 C   0  0  0  0  0  0  0  0  0  0  0  0
    0.2978   -3.0910    0.0000 O   0  0  0  0  0  0  0  0  0  0  0  0
   -0.3834   -0.2162    0.0000 C   0  0  0  0  0  3  0  0  0  0  0  0
    0.8698    0.6080    0.0000 C   0  0  0  0  0  0  0  0  0  0  0  0
    2.2102   -0.0652    0.0000 C   0  0  0  0  0  0  0  0  0  0  0  0
    3.4635    0.7590    0.0000 C   0  0  0  0  0  0  0  0  0  0  0  0
    3.3763    2.2565    0.0000 O   0  0  0  0  0  0  0  0  0  0  0  0
    4.8039    0.0858    0.0000 C   0  0  0  0  0  0  0  0  0  0  0  0
    4.8911   -1.4117    0.0000 O   0  0  0  0  0  0  0  0  0  0  0  0
    6.0572    0.9100    0.0000 C   0  0  0  0  0  0  0  0  0  0  0  0
    7.3976    0.2368    0.0000 O   0  0  0  0  0  0  0  0  0  0  0  0
  1  2  1  0
  2  3  1  0
  2  4  1  0
  4  5  1  0
  5  6  1  0
  6  7  1  0
  7  8  1  1
  7  9  1  0
  9 10  1  0
 10 11  1  0
 11 12  1  0
 12 13  1  1
 12 14  1  0
 12 15  1  0
 15 16  1  0
 16 17  1  0
 17 18  1  0
 18 19  2  0
 18 20  1  0
 20 21  1  0
 20 22  1  0
 22 23  1  0
  9  2  1  0
 15  7  1  0
M  RAD  2   9   2  15   2
M  END
>  <identifier>  (522) 
CNP0539751.1

>  <canonical_smiles>  (522) 
CC1(C)CCC[C@@]2(C)[C]1CC[C@@](C)(O)[C]2CCC(=O)C(O)CO

>  <standard_inchi>  (522) 
InChI=1S/C19H32O4/c1-17(2)9-5-10-18(3)15(17)8-11-19(4,23)16(18)7-6-13(21)14(22)12-20/h14,20,22-23H,5-12H2,1-4H3/t14?,18-,19+/m0/s1

>  <standard_inchi_key>  (522) 
HZKYMCVFMXZJLS-GGUZCGDUSA-N

>  <name>  (522) 
1 2-dihydroxy-5-((1R 2R 4aS 8aS)-2-hydroxy-2 5 5 8a-tetramethyldecahydronaphthalen-1-yl)pentan-3-one

>  <iupac_name>  (522) 
5-[(2~{R},8~{a}~{S})-2-hydroxy-2,5,5,8~{a}-tetramethyl-4,6,7,8-tetrahydro-3~{H}-naphthalen-1-yl]-1,2-dihydroxy-pentan-3-one

>  <annotation_level>  (522) 
5

>  <total_atom_count>  (522) 
55

>  <heavy_atom_count>  (522) 
23

>  <molecular_weight>  (522) 
324.46

>  <exact_molecular_weight>  (522) 
324.23006

>  <molecular_formula>  (522) 
C19H32O4

>  <alogp>  (522) 
2.60

>  <topological_polar_surface_area>  (522) 
77.76

>  <rotatable_bond_count>  (522) 
5

>  <hydrogen_bond_acceptors>  (522) 
4

>  <hydrogen_bond_donors>  (522) 
3

>  <hydrogen_bond_acceptors_lipinski>  (522) 
4

>  <hydrogen_bond_donors_lipinski>  (522) 
3

>  <lipinski_rule_of_five_violations>  (522) 
0

>  <aromatic_rings_count>  (522) 
0

>  <qed_drug_likeliness>  (522) 
0.73

>  <formal_charge>  (522) 
0

>  <fractioncsp3>  (522) 
0.84

>  <number_of_minimal_rings>  (522) 
2

>  <van_der_walls_volume>  (522) 
323.34

>  <contains_sugar>  (522) 
False

>  <contains_ring_sugars>  (522) 
False

>  <contains_linear_sugars>  (522) 
False

>  <murcko_framework>  (522) 
C1CCC2CCCCC2C1

>  <np_likeness>  (522) 
1.35

>  <chemical_class>  (522) 
Prenol lipids

>  <chemical_sub_class>  (522) 
Sesquiterpenoids

>  <chemical_super_class>  (522) 
Lipids and lipid-like molecules

>  <direct_parent_classification>  (522) 
Sesquiterpenoids

>  <np_classifier_pathway>  (522) 
Terpenoids

>  <np_classifier_superclass>  (522) 
Diterpenoids

>  <np_classifier_class>  (522) 
Secolabdane diterpenoids

>  <np_classifier_is_glycoside>  (522) 
False

>  <organisms>  (522) 
Physalis nicandroides var. attenuata

>  <collections>  (522) 
BIOFACQUIM

>  <dois>  (522) 
10.1021/acs.jnatprod.9b00233

>  <synonyms>  (522) 
1 2-dihydroxy-5-((1R 2R 4aS 8aS)-2-hydroxy-2 5 5 8a-tetramethyldecahydronaphthalen-1-yl)pentan-3-one

>  <cas>  (522) 
nan

$$$$

     RDKit          2D

 39 41  0  0  0  0  0  0  0  0999 V2000
   -0.2012    2.9038    0.0000 C   0  0  0  0  0  0  0  0  0  0  0  0
   -0.3305    1.4093    0.0000 C   0  0  0  0  0  0  0  0  0  0  0  0
   -1.6893    0.7741    0.0000 C   0  0  0  0  0  0  0  0  0  0  0  0
   -2.9189    1.6333    0.0000 C   0  0  0  0  0  0  0  0  0  0  0  0
   -4.2778    0.9980    0.0000 O   0  0  0  0  0  0  0  0  0  0  0  0
   -5.5073    1.8572    0.0000 C   0  0  0  0  0  0  0  0  0  0  0  0
   -5.3780    3.3516    0.0000 O   0  0  0  0  0  0  0  0  0  0  0  0
   -6.8662    1.2219    0.0000 C   0  0  0  0  0  0  0  0  0  0  0  0
   -8.0957    2.0811    0.0000 C   0  0  0  0  0  0  0  0  0  0  0  0
   -9.4546    1.4459    0.0000 C   0  0  0  0  0  0  0  0  0  0  0  0
   -7.9664    3.5755    0.0000 C   0  0  0  0  0  0  0  0  0  0  0  0
    0.8991    0.5502    0.0000 C   0  0  0  0  0  3  0  0  0  0  0  0
    2.2579    1.1854    0.0000 C   0  0  0  0  0  0  0  0  0  0  0  0
    3.4875    0.3263    0.0000 C   0  0  0  0  0  3  0  0  0  0  0  0
    3.3582   -1.1682    0.0000 C   0  0  0  0  0  0  0  0  0  0  0  0
    1.9993   -1.8034    0.0000 O   0  0  0  0  0  0  0  0  0  0  0  0
    4.5878   -2.0273    0.0000 C   0  0  0  0  0  0  0  0  0  0  0  0
    5.9466   -1.3921    0.0000 C   0  0  0  0  0  0  0  0  0  0  0  0
    6.0759    0.1023    0.0000 C   0  0  0  0  0  3  0  0  0  0  0  0
    7.4347    0.7376    0.0000 C   0  0  0  0  0  0  0  0  0  0  0  0
    8.9289    0.8698    0.0000 C   0  0  0  0  0  0  0  0  0  0  0  0
    7.8244   -0.7109    0.0000 C   0  0  0  0  0  0  0  0  0  0  0  0
    7.5640    2.2320    0.0000 C   0  0  0  0  0  0  0  0  0  0  0  0
    6.3344    3.0912    0.0000 C   0  0  0  0  0  0  0  0  0  0  0  0
    4.9756    2.4559    0.0000 C   0  0  0  0  0  0  0  0  0  0  0  0
    4.8463    0.9615    0.0000 C   0  0  0  0  0  0  0  0  0  0  0  0
    3.6168    1.8207    0.0000 C   0  0  0  0  0  0  0  0  0  0  0  0
    0.7698   -0.9442    0.0000 O   0  0  0  0  0  0  0  0  0  0  0  0
   -0.5891   -1.5795    0.0000 C   0  0  0  0  0  3  0  0  0  0  0  0
   -1.8186   -0.7203    0.0000 O   0  0  0  0  0  0  0  0  0  0  0  0
   -3.1775   -1.3556    0.0000 C   0  0  0  0  0  3  0  0  0  0  0  0
   -4.4070   -0.4964    0.0000 C   0  0  0  0  0  0  0  0  0  0  0  0
   -5.7659   -1.1316    0.0000 O   0  0  0  0  0  0  0  0  0  0  0  0
   -3.3068   -2.8500    0.0000 C   0  0  0  0  0  3  0  0  0  0  0  0
   -4.6656   -3.4852    0.0000 O   0  0  0  0  0  0  0  0  0  0  0  0
   -2.0772   -3.7092    0.0000 C   0  0  0  0  0  3  0  0  0  0  0  0
   -2.2065   -5.2036    0.0000 O   0  0  0  0  0  0  0  0  0  0  0  0
   -0.7183   -3.0739    0.0000 C   0  0  0  0  0  3  0  0  0  0  0  0
    0.5112   -3.9331    0.0000 O   0  0  0  0  0  0  0  0  0  0  0  0
  1  2  1  0
  2  3  2  0
  3  4  1  0
  4  5  1  0
  5  6  1  0
  6  7  2  0
  6  8  1  0
  8  9  1  0
  9 10  1  0
  9 11  1  0
  2 12  1  0
 12 13  1  0
 13 14  1  0
 14 15  1  0
 15 16  2  0
 15 17  1  0
 17 18  1  0
 18 19  1  0
 19 20  1  0
 20 21  1  0
 20 22  1  0
 20 23  1  0
 23 24  1  0
 24 25  1  0
 25 26  1  0
 26 27  1  6
 12 28  1  0
 28 29  1  0
 29 30  1  0
 30 31  1  0
 31 32  1  0
 32 33  1  0
 31 34  1  0
 34 35  1  0
 34 36  1  0
 36 37  1  0
 36 38  1  0
 38 39  1  0
 26 14  1  0
 38 29  1  0
 26 19  1  0
M  RAD  8  12   2  14   2  19   2  29   2  31   2  34   2  36   2  38   2
M  END
>  <identifier>  (523) 
CNP0520177.1

>  <canonical_smiles>  (523) 
C/C(=C\COC(=O)CC(C)C)[C](C[C]1C(=O)CC[C]2C(C)(C)CCC[C@]12C)O[C]1O[C](CO)[C](O)[C](O)[C]1O

>  <standard_inchi>  (523) 
InChI=1S/C30H42O9/c1-17(2)14-24(33)37-13-10-18(3)21(38-28-27(36)26(35)25(34)22(16-31)39-28)15-19-20(32)8-9-23-29(4,5)11-7-12-30(19,23)6/h10,17,31,34-36H,7-9,11-16H2,1-6H3/b18-10+/t30-/m1/s1

>  <standard_inchi_key>  (523) 
KTYTYTCQAMPSEU-FUDIHLCWSA-N

>  <name>  (523) 
(S E)-3-methyl-4-(((2R 3R 4S 5S 6R)-3 4 5-trihydroxy-6-(hydroxymethyl)tetrahydro-2H-pyran-2-yl)oxy)-5-((1R 4aS 8aS)-5 5 8a-trimethyl-2-oxodecahydronaphthalen-1-yl)pent-2-en-1-yl 3-methylbutanoate

>  <iupac_name>  (523) 
[(~{E})-5-[(8~{a}~{S})-5,5,8~{a}-trimethyl-2-oxo-4,6,7,8-tetrahydro-3~{H}-naphthalen-1-yl]-3-methyl-4-[3,4,5-trihydroxy-6-(hydroxymethyl)pyran-2-yl]oxy-pent-2-enyl] 3-methylbutanoate

>  <annotation_level>  (523) 
5

>  <total_atom_count>  (523) 
81

>  <heavy_atom_count>  (523) 
39

>  <molecular_weight>  (523) 
546.66

>  <exact_molecular_weight>  (523) 
546.28288

>  <molecular_formula>  (523) 
C30H42O9

>  <alogp>  (523) 
4.95

>  <topological_polar_surface_area>  (523) 
142.75

>  <rotatable_bond_count>  (523) 
10

>  <hydrogen_bond_acceptors>  (523) 
9

>  <hydrogen_bond_donors>  (523) 
4

>  <hydrogen_bond_acceptors_lipinski>  (523) 
9

>  <hydrogen_bond_donors_lipinski>  (523) 
4

>  <lipinski_rule_of_five_violations>  (523) 
1

>  <aromatic_rings_count>  (523) 
0

>  <qed_drug_likeliness>  (523) 
0.28

>  <formal_charge>  (523) 
0

>  <fractioncsp3>  (523) 
0.60

>  <number_of_minimal_rings>  (523) 
3

>  <van_der_walls_volume>  (523) 
514.01

>  <contains_sugar>  (523) 
True

>  <contains_ring_sugars>  (523) 
True

>  <contains_linear_sugars>  (523) 
False

>  <murcko_framework>  (523) 
O1CCCCC1OCCC2CCCC3CCCCC23

>  <np_likeness>  (523) 
0.89

>  <chemical_class>  (523) 
Fatty Acyls

>  <chemical_sub_class>  (523) 
Fatty acyl glycosides

>  <chemical_super_class>  (523) 
Lipids and lipid-like molecules

>  <direct_parent_classification>  (523) 
Fatty acyl glycosides of mono- and disaccharides

>  <np_classifier_pathway>  (523) 
Terpenoids

>  <np_classifier_superclass>  (523) 
nan

>  <np_classifier_class>  (523) 
nan

>  <np_classifier_is_glycoside>  (523) 
True

>  <organisms>  (523) 
Physalis nicandroides var. attenuata

>  <collections>  (523) 
BIOFACQUIM

>  <dois>  (523) 
10.1021/acs.jnatprod.9b00233

>  <synonyms>  (523) 
(S E)-3-methyl-4-(((2R 3R 4S 5S 6R)-3 4 5-trihydroxy-6-(hydroxymethyl)tetrahydro-2H-pyran-2-yl)oxy)-5-((1R 4aS 8aS)-5 5 8a-trimethyl-2-oxodecahydronaphthalen-1-yl)pent-2-en-1-yl 3-methylbutanoate

>  <cas>  (523) 
nan

$$$$

     RDKit          2D

 40 45  0  0  0  0  0  0  0  0999 V2000
   -8.0220    1.4489    0.0000 C   0  0  0  0  0  0  0  0  0  0  0  0
   -7.3151    0.1259    0.0000 O   0  0  0  0  0  0  0  0  0  0  0  0
   -5.8160    0.0766    0.0000 C   0  0  0  0  0  3  0  0  0  0  0  0
   -5.0236    1.3502    0.0000 C   0  0  0  0  0  0  0  0  0  0  0  0
   -3.5244    1.3009    0.0000 C   0  0  0  0  0  0  0  0  0  0  0  0
   -2.7321    2.5745    0.0000 O   0  0  0  0  0  0  0  0  0  0  0  0
   -2.8176   -0.0221    0.0000 C   0  0  0  0  0  0  0  0  0  0  0  0
   -2.0252    1.2515    0.0000 C   0  0  0  0  0  0  0  0  0  0  0  0
   -1.3184   -0.0715    0.0000 C   0  0  0  0  0  3  0  0  0  0  0  0
   -0.5261    1.2022    0.0000 C   0  0  0  0  0  0  0  0  0  0  0  0
    0.9731    1.1528    0.0000 C   0  0  0  0  0  0  0  0  0  0  0  0
    1.6800   -0.1702    0.0000 C   0  0  0  0  0  0  0  0  0  0  0  0
    2.6011    1.0137    0.0000 C   0  0  0  0  0  0  0  0  0  0  0  0
    3.1361   -0.5302    0.0000 C   0  0  0  0  0  0  0  0  0  0  0  0
    4.2833    0.4363    0.0000 C   0  0  0  0  0  0  0  0  0  0  0  0
    5.4304    1.4028    0.0000 C   0  0  0  0  0  0  0  0  0  0  0  0
    5.2498   -0.7108    0.0000 O   0  0  0  0  0  0  0  0  0  0  0  0
    3.3168    1.5835    0.0000 C   0  0  0  0  0  0  0  0  0  0  0  0
    3.8270    2.9940    0.0000 C   0  0  0  0  0  0  0  0  0  0  0  0
    2.8605    4.1412    0.0000 C   0  0  0  0  0  0  0  0  0  0  0  0
    3.3708    5.5517    0.0000 C   0  0  0  0  0  0  0  0  0  0  0  0
    1.3839    3.8777    0.0000 C   0  0  0  0  0  0  0  0  0  0  0  0
    0.4174    5.0249    0.0000 C   0  0  0  0  0  0  0  0  0  0  0  0
    0.8736    2.4672    0.0000 C   0  0  0  0  0  0  0  0  0  0  0  0
   -0.6030    2.2037    0.0000 O   0  0  0  0  0  0  0  0  0  0  0  0
    1.8401    1.3200    0.0000 O   0  0  0  0  0  0  0  0  0  0  0  0
    3.2438   -2.0263    0.0000 C   0  0  0  0  0  0  0  0  0  0  0  0
    1.8541   -2.5910    0.0000 C   0  0  0  0  0  3  0  0  0  0  0  0
    1.4942   -4.0471    0.0000 O   0  0  0  0  0  0  0  0  0  0  0  0
    2.5752   -5.0870    0.0000 C   0  0  0  0  0  0  0  0  0  0  0  0
    2.2153   -6.5431    0.0000 C   0  0  0  0  0  0  0  0  0  0  0  0
    4.0163   -4.6706    0.0000 O   0  0  0  0  0  0  0  0  0  0  0  0
    0.8876   -1.4438    0.0000 C   0  0  0  0  0  0  0  0  0  0  0  0
    0.2328   -2.7933    0.0000 O   0  0  0  0  0  0  0  0  0  0  0  0
   -0.6115   -1.3945    0.0000 C   0  0  0  0  0  3  0  0  0  0  0  0
   -1.4039   -2.6682    0.0000 C   0  0  0  0  0  0  0  0  0  0  0  0
   -2.9031   -2.6188    0.0000 C   0  0  0  0  0  3  0  0  0  0  0  0
   -4.4022   -2.5694    0.0000 O   0  0  0  0  0  0  0  0  0  0  0  0
   -3.6099   -1.2958    0.0000 C   0  0  0  0  0  0  0  0  0  0  0  0
   -5.1091   -1.2464    0.0000 C   0  0  0  0  0  0  0  0  0  0  0  0
  1  2  1  0
  2  3  1  0
  3  4  1  0
  4  5  1  0
  5  6  2  0
  5  7  1  0
  7  8  1  1
  7  9  1  0
  9 10  1  0
 10 11  1  0
 11 12  1  0
 12 13  1  1
 12 14  1  0
 14 15  1  0
 15 16  1  1
 15 17  1  0
 15 18  1  0
 18 19  1  0
 19 20  1  0
 20 21  1  0
 20 22  2  0
 22 23  1  0
 22 24  1  0
 24 25  2  0
 24 26  1  0
 14 27  1  0
 27 28  1  0
 28 29  1  0
 29 30  1  0
 30 31  1  0
 30 32  2  0
 28 33  1  0
 33 34  1  1
 33 35  1  0
 35 36  1  0
 36 37  1  0
 37 38  1  0
 38 39  1  0
 39 40  1  6
 40  3  1  0
 39  7  1  0
 35  9  1  0
 39 37  1  0
 33 12  1  0
 26 18  1  0
M  RAD  5   3   2   9   2  28   2  35   2  37   2
M  END
>  <identifier>  (524) 
CNP0527606.1

>  <canonical_smiles>  (524) 
CO[C]1CC(=O)[C@]2(C)[C]3CC[C@]4(C)C([C@@](C)(O)C5CC(C)=C(C)C(=O)O5)C[C](OC(C)=O)[C@]4(O)[C]3C[C]3O[C@]32C1

>  <standard_inchi>  (524) 
InChI=1S/C31H39O9/c1-15-10-23(39-26(34)16(15)2)29(6,35)21-13-25(38-17(3)32)31(36)20-12-24-30(40-24)14-18(37-7)11-22(33)28(30,5)19(20)8-9-27(21,31)4/h21,23,35-36H,8-14H2,1-7H3/t21?,23?,27-,28+,29-,30-,31-/m1/s1

>  <standard_inchi_key>  (524) 
XMLSHWLANHIZIA-JJNLXGJDSA-N

>  <name>  (524) 
(3S 4aS 5aR 6aR 6bS 7S 9aR 11aS 11bR)-9-((1R)-1-(4 5-dimethyl-6-oxo-3 6-dihydro-2H-pyran-2-yl)-1-hydroxyethyl)-6b-hydroxy-3-methoxy-9a 11b-dimethyl-1-oxohexadecahydrocyclopenta[1 2]phenanthro[8a 9-b]oxiren-7-yl acetate

>  <iupac_name>  (524) 
nan

>  <annotation_level>  (524) 
5

>  <total_atom_count>  (524) 
79

>  <heavy_atom_count>  (524) 
40

>  <molecular_weight>  (524) 
555.64

>  <exact_molecular_weight>  (524) 
555.25941

>  <molecular_formula>  (524) 
C31H39O9

>  <alogp>  (524) 
3.44

>  <topological_polar_surface_area>  (524) 
131.89

>  <rotatable_bond_count>  (524) 
4

>  <hydrogen_bond_acceptors>  (524) 
9

>  <hydrogen_bond_donors>  (524) 
2

>  <hydrogen_bond_acceptors_lipinski>  (524) 
9

>  <hydrogen_bond_donors_lipinski>  (524) 
2

>  <lipinski_rule_of_five_violations>  (524) 
1

>  <aromatic_rings_count>  (524) 
0

>  <qed_drug_likeliness>  (524) 
0.40

>  <formal_charge>  (524) 
0

>  <fractioncsp3>  (524) 
0.68

>  <number_of_minimal_rings>  (524) 
6

>  <van_der_walls_volume>  (524) 
500.88

>  <contains_sugar>  (524) 
False

>  <contains_ring_sugars>  (524) 
False

>  <contains_linear_sugars>  (524) 
False

>  <murcko_framework>  (524) 
O1CC=CCC1CC2CCC3C2CCC4C3CC5OC65CCCCC46

>  <np_likeness>  (524) 
1.78

>  <chemical_class>  (524) 
Steroids and steroid derivatives

>  <chemical_sub_class>  (524) 
Steroid lactones

>  <chemical_super_class>  (524) 
Lipids and lipid-like molecules

>  <direct_parent_classification>  (524) 
Withanolides and derivatives

>  <np_classifier_pathway>  (524) 
Terpenoids

>  <np_classifier_superclass>  (524) 
Steroids

>  <np_classifier_class>  (524) 
Ergostane steroids

>  <np_classifier_is_glycoside>  (524) 
False

>  <organisms>  (524) 
Physalis nicandroides var. attenuata

>  <collections>  (524) 
BIOFACQUIM

>  <dois>  (524) 
10.1021/acs.jnatprod.9b00233

>  <synonyms>  (524) 
(3S 4aS 5aR 6aR 6bS 7S 9aR 11aS 11bR)-9-((1R)-1-(4 5-dimethyl-6-oxo-3 6-dihydro-2H-pyran-2-yl)-1-hydroxyethyl)-6b-hydroxy-3-methoxy-9a 11b-dimethyl-1-oxohexadecahydrocyclopenta1 2phenanthro8a 9-boxiren-7-yl acetate

>  <cas>  (524) 
nan

$$$$

     RDKit          2D

 33 37  0  0  0  0  0  0  0  0999 V2000
   -4.3554    3.8216    0.0000 C   0  0  0  0  0  0  0  0  0  0  0  0
   -3.4642    2.6151    0.0000 C   0  0  0  0  0  0  0  0  0  0  0  0
   -1.9737    2.7837    0.0000 C   0  0  0  0  0  0  0  0  0  0  0  0
   -1.3745    4.1589    0.0000 C   0  0  0  0  0  0  0  0  0  0  0  0
   -1.0824    1.5773    0.0000 C   0  0  0  0  0  0  0  0  0  0  0  0
    0.4081    1.7459    0.0000 O   0  0  0  0  0  0  0  0  0  0  0  0
   -1.6816    0.2021    0.0000 O   0  0  0  0  0  0  0  0  0  0  0  0
   -3.1721    0.0335    0.0000 C   0  0  0  0  0  0  0  0  0  0  0  0
   -3.7713   -1.3416    0.0000 C   0  0  0  0  0  0  0  0  0  0  0  0
   -5.1464   -0.7424    0.0000 C   0  0  0  0  0  0  0  0  0  0  0  0
   -4.3705   -2.7167    0.0000 O   0  0  0  0  0  0  0  0  0  0  0  0
   -2.3962   -1.9408    0.0000 C   0  0  0  0  0  0  0  0  0  0  0  0
   -2.0727   -3.4055    0.0000 C   0  0  0  0  0  0  0  0  0  0  0  0
   -0.5797   -3.5505    0.0000 C   0  0  0  0  0  0  0  0  0  0  0  0
    0.0195   -2.1753    0.0000 C   0  0  0  0  0  0  0  0  0  0  0  0
    1.0320   -3.2821    0.0000 O   0  0  0  0  0  0  0  0  0  0  0  0
    1.4424   -1.7005    0.0000 C   0  0  0  0  0  3  0  0  0  0  0  0
    2.5650   -2.6953    0.0000 C   0  0  0  0  0  0  0  0  0  0  0  0
    3.9879   -2.2205    0.0000 C   0  0  0  0  0  0  0  0  0  0  0  0
    4.2881   -0.7508    0.0000 C   0  0  0  0  0  0  0  0  0  0  0  0
    5.7110   -0.2760    0.0000 C   0  0  0  0  0  0  0  0  0  0  0  0
    6.0112    1.1937    0.0000 C   0  0  0  0  0  0  0  0  0  0  0  0
    4.8885    2.1885    0.0000 C   0  0  0  0  0  0  0  0  0  0  0  0
    3.4657    1.7136    0.0000 C   0  0  0  0  0  0  0  0  0  0  0  0
    2.3430    2.7084    0.0000 O   0  0  0  0  0  0  0  0  0  0  0  0
    3.1655    0.2440    0.0000 C   0  0  0  0  0  0  0  0  0  0  0  0
    2.0428    1.2388    0.0000 C   0  0  0  0  0  0  0  0  0  0  0  0
    1.7426   -0.2309    0.0000 C   0  0  0  0  0  3  0  0  0  0  0  0
    0.6200    0.7640    0.0000 C   0  0  0  0  0  0  0  0  0  0  0  0
   -0.8029    0.2891    0.0000 C   0  0  0  0  0  0  0  0  0  0  0  0
   -1.1031   -1.1805    0.0000 C   0  0  0  0  0  0  0  0  0  0  0  0
   -2.3236   -0.3085    0.0000 C   0  0  0  0  0  0  0  0  0  0  0  0
   -4.0634    1.2400    0.0000 C   0  0  0  0  0  0  0  0  0  0  0  0
  1  2  1  0
  2  3  2  0
  3  4  1  0
  3  5  1  0
  5  6  2  0
  5  7  1  0
  7  8  1  0
  8  9  1  0
  9 10  1  6
  9 11  1  0
  9 12  1  0
 12 13  1  0
 13 14  1  0
 14 15  1  0
 15 16  1  6
 15 17  1  0
 17 18  1  0
 18 19  1  0
 19 20  1  0
 20 21  1  0
 21 22  1  0
 22 23  2  0
 23 24  1  0
 24 25  2  0
 24 26  1  0
 26 27  1  6
 26 28  1  0
 28 29  1  0
 29 30  1  0
 30 31  1  0
 31 32  1  6
  8 33  1  0
 33  2  1  0
 31 12  1  0
 31 15  1  0
 28 17  1  0
 26 20  1  0
M  RAD  2  17   2  28   2
M  END
>  <identifier>  (525) 
CNP0516755.1

>  <canonical_smiles>  (525) 
CC1=C(C)C(=O)OC([C@](C)(O)C2CC[C@]3(O)[C]4CCC5CC=CC(=O)[C@]5(C)[C]4CC[C@]23C)C1

>  <standard_inchi>  (525) 
InChI=1S/C28H38O5/c1-16-15-23(33-24(30)17(16)2)27(5,31)21-12-14-28(32)20-10-9-18-7-6-8-22(29)26(18,4)19(20)11-13-25(21,28)3/h6,8,18,21,23,31-32H,7,9-15H2,1-5H3/t18?,21?,23?,25-,26+,27-,28+/m1/s1

>  <standard_inchi_key>  (525) 
BLNLUVMFWGQTSJ-UWNZDSAQSA-N

>  <name>  (525) 
6-((1R)-1-hydroxy-1-((8R 9S 10S 13R 14S)-14-hydroxy-10 13-dimethyl-1-oxo-4 5 6 7 8 9 10 11 12 13 14 15 16 17-tetradecahydro-1H-cyclopenta[a]phenanthren-17-yl)ethyl)-3 4-dimethyl-5 6-dihydro-2H-pyran-2-one

>  <iupac_name>  (525) 
2-[(1~{R})-1-hydroxy-1-[(10~{R},13~{R},14~{S})-14-hydroxy-10,13-dimethyl-1-oxo-5,6,7,11,12,15,16,17-octahydro-4~{H}-cyclopenta[a]phenanthren-17-yl]ethyl]-4,5-dimethyl-2,3-dihydropyran-6-one

>  <annotation_level>  (525) 
5

>  <total_atom_count>  (525) 
71

>  <heavy_atom_count>  (525) 
33

>  <molecular_weight>  (525) 
454.61

>  <exact_molecular_weight>  (525) 
454.27192

>  <molecular_formula>  (525) 
C28H38O5

>  <alogp>  (525) 
4.42

>  <topological_polar_surface_area>  (525) 
83.83

>  <rotatable_bond_count>  (525) 
2

>  <hydrogen_bond_acceptors>  (525) 
5

>  <hydrogen_bond_donors>  (525) 
2

>  <hydrogen_bond_acceptors_lipinski>  (525) 
5

>  <hydrogen_bond_donors_lipinski>  (525) 
2

>  <lipinski_rule_of_five_violations>  (525) 
0

>  <aromatic_rings_count>  (525) 
0

>  <qed_drug_likeliness>  (525) 
0.60

>  <formal_charge>  (525) 
0

>  <fractioncsp3>  (525) 
0.71

>  <number_of_minimal_rings>  (525) 
5

>  <van_der_walls_volume>  (525) 
430.55

>  <contains_sugar>  (525) 
False

>  <contains_ring_sugars>  (525) 
False

>  <contains_linear_sugars>  (525) 
False

>  <murcko_framework>  (525) 
O1CC=CCC1CC2CCC3C2CCC4C5CC=CCC5CCC43

>  <np_likeness>  (525) 
2.96

>  <chemical_class>  (525) 
Steroids and steroid derivatives

>  <chemical_sub_class>  (525) 
Steroid lactones

>  <chemical_super_class>  (525) 
Lipids and lipid-like molecules

>  <direct_parent_classification>  (525) 
Withanolides and derivatives

>  <np_classifier_pathway>  (525) 
Terpenoids

>  <np_classifier_superclass>  (525) 
Steroids

>  <np_classifier_class>  (525) 
Ergostane steroids

>  <np_classifier_is_glycoside>  (525) 
False

>  <organisms>  (525) 
Physalis nicandroides var. attenuata

>  <collections>  (525) 
BIOFACQUIM

>  <dois>  (525) 
10.1021/acs.jnatprod.9b00233

>  <synonyms>  (525) 
6-((1R)-1-hydroxy-1-((8R 9S 10S 13R 14S)-14-hydroxy-10 13-dimethyl-1-oxo-4 5 6 7 8 9 10 11 12 13 14 15 16 17-tetradecahydro-1H-cyclopentaaphenanthren-17-yl)ethyl)-3 4-dimethyl-5 6-dihydro-2H-pyran-2-one

>  <cas>  (525) 
nan

$$$$

     RDKit          2D

 24 26  0  0  0  0  0  0  0  0999 V2000
   -6.8794   -1.9451    0.0000 C   0  0  0  0  0  0  0  0  0  0  0  0
   -5.4391   -2.3640    0.0000 O   0  0  0  0  0  0  0  0  0  0  0  0
   -4.3561   -1.3261    0.0000 C   0  0  0  0  0  0  0  0  0  0  0  0
   -4.7135    0.1307    0.0000 C   0  0  0  0  0  0  0  0  0  0  0  0
   -3.6306    1.1686    0.0000 C   0  0  0  0  0  0  0  0  0  0  0  0
   -3.9880    2.6254    0.0000 O   0  0  0  0  0  0  0  0  0  0  0  0
   -2.1903    0.7497    0.0000 C   0  0  0  0  0  0  0  0  0  0  0  0
   -1.1073    1.7877    0.0000 C   0  0  0  0  0  0  0  0  0  0  0  0
   -1.4647    3.2445    0.0000 O   0  0  0  0  0  0  0  0  0  0  0  0
    0.3330    1.3688    0.0000 C   0  0  0  0  0  0  0  0  0  0  0  0
    1.4159    2.4067    0.0000 O   0  0  0  0  0  0  0  0  0  0  0  0
    2.8563    1.9878    0.0000 C   0  0  0  0  0  0  0  0  0  0  0  0
    0.6904   -0.0880    0.0000 C   0  0  0  0  0  0  0  0  0  0  0  0
    2.1307   -0.5069    0.0000 C   0  0  0  0  0  0  0  0  0  0  0  0
    2.4881   -1.9637    0.0000 C   0  0  0  0  0  0  0  0  0  0  0  0
    3.9284   -2.3826    0.0000 C   0  0  0  0  0  0  0  0  0  0  0  0
    5.0113   -1.3447    0.0000 C   0  0  0  0  0  0  0  0  0  0  0  0
    6.4517   -1.7636    0.0000 O   0  0  0  0  0  0  0  0  0  0  0  0
    4.6540    0.1121    0.0000 C   0  0  0  0  0  0  0  0  0  0  0  0
    5.7369    1.1500    0.0000 O   0  0  0  0  0  0  0  0  0  0  0  0
    3.2136    0.5310    0.0000 C   0  0  0  0  0  0  0  0  0  0  0  0
   -0.3926   -1.1260    0.0000 O   0  0  0  0  0  0  0  0  0  0  0  0
   -1.8329   -0.7071    0.0000 C   0  0  0  0  0  0  0  0  0  0  0  0
   -2.9158   -1.7450    0.0000 C   0  0  0  0  0  0  0  0  0  0  0  0
  1  2  1  0
  2  3  1  0
  3  4  2  0
  4  5  1  0
  5  6  1  0
  5  7  2  0
  7  8  1  0
  8  9  2  0
  8 10  1  0
 10 11  1  0
 11 12  1  0
 10 13  2  0
 13 14  1  0
 14 15  2  0
 15 16  1  0
 16 17  2  0
 17 18  1  0
 17 19  1  0
 19 20  1  0
 19 21  2  0
 13 22  1  0
 22 23  1  0
 23 24  2  0
 24  3  1  0
 23  7  1  0
 21 14  1  0
M  END
>  <identifier>  (526) 
CNP0386358.0

>  <canonical_smiles>  (526) 
COC1=CC(O)=C2C(=O)C(OC)=C(C3=CC=C(O)C(O)=C3)OC2=C1

>  <standard_inchi>  (526) 
InChI=1S/C17H14O7/c1-22-9-6-12(20)14-13(7-9)24-16(17(23-2)15(14)21)8-3-4-10(18)11(19)5-8/h3-7,18-20H,1-2H3

>  <standard_inchi_key>  (526) 
LUJAXSNNYBCFEE-UHFFFAOYSA-N

>  <name>  (526) 
3,7-Di-O-methylquercetin

>  <iupac_name>  (526) 
2-(3,4-dihydroxyphenyl)-5-hydroxy-3,7-dimethoxy-chromen-4-one

>  <annotation_level>  (526) 
5

>  <total_atom_count>  (526) 
38

>  <heavy_atom_count>  (526) 
24

>  <molecular_weight>  (526) 
330.29

>  <exact_molecular_weight>  (526) 
330.07395

>  <molecular_formula>  (526) 
C17H14O7

>  <alogp>  (526) 
2.59

>  <topological_polar_surface_area>  (526) 
109.36

>  <rotatable_bond_count>  (526) 
3

>  <hydrogen_bond_acceptors>  (526) 
7

>  <hydrogen_bond_donors>  (526) 
3

>  <hydrogen_bond_acceptors_lipinski>  (526) 
7

>  <hydrogen_bond_donors_lipinski>  (526) 
3

>  <lipinski_rule_of_five_violations>  (526) 
0

>  <aromatic_rings_count>  (526) 
3

>  <qed_drug_likeliness>  (526) 
0.63

>  <formal_charge>  (526) 
0

>  <fractioncsp3>  (526) 
0.12

>  <number_of_minimal_rings>  (526) 
3

>  <van_der_walls_volume>  (526) 
273.30

>  <contains_sugar>  (526) 
False

>  <contains_ring_sugars>  (526) 
False

>  <contains_linear_sugars>  (526) 
False

>  <murcko_framework>  (526) 
O1c2ccccc2CC=C1c3ccccc3

>  <np_likeness>  (526) 
1.34

>  <chemical_class>  (526) 
Flavonoids

>  <chemical_sub_class>  (526) 
O-methylated flavonoids

>  <chemical_super_class>  (526) 
Phenylpropanoids and polyketides

>  <direct_parent_classification>  (526) 
3-O-methylated flavonoids

>  <np_classifier_pathway>  (526) 
Shikimates and Phenylpropanoids

>  <np_classifier_superclass>  (526) 
Flavonoids

>  <np_classifier_class>  (526) 
Flavonols

>  <np_classifier_is_glycoside>  (526) 
False

>  <organisms>  (526) 
Aberia caffra|Aeonium manriquiorum|Artemisia monosperma|Artemisia spp.|Baccharis pilularis|Bacillus amyloliquefaciens|Blumea balsamifera|Caesalpinia sappan|Calceolaria spp.|Cardopatium corymbosum|Chrysothamnus viscidiflorus|Citrullus lanatus|Cyperus spp.|Dioscorea bulbifera|Eirmocephala megaphylla|Eriodictyon trichocalyx|Eucryphia|Eucryphia milliganii|Eucryphia moorei|Flourensia cernua|Grindelia tarapacana|Gutierrezia microcephala|Haplopappus taeda|Heliotropium pycnophyllum|Heliotropium stenophyllum|Holocarpha spp.|Hypolytrum nemorum|Lantana camara|Larrea cuneifolia|Libanothamnus occultus|Lonchocarpus yucatanensis|Lycopersicon penneli|Macaranga triloba|Mimulus cardinalis|Mirabilis viscosa|Nymphoides indica|Ozothamnus lycopodioides|Ozothamnus scutellifolius|Palafoxia sphacelata|Pelargonium fulgidum|Pelargonium quercifolium|Petunia surfinia|Phakellia dendyi|Physalis nicandroides var. attenuata|Rubus phoenicolasius|Salpiglossis sinuata|Scopolia tangutica|Sidastrum tehuacanum|Siegesbeckia jorullensis|Siegesbeckia orientalis|Streptomyces flaveus|Viscum album|Viscum cruciatum|Wallastonia bifora

>  <collections>  (526) 
ANPDB|Australian natural products|BIOFACQUIM|CMAUP (cCollective molecular activities of useful plants)|ChEBI NPs|FooDB|KNApSaCK|Latin America dataset|NANPDB (Natural Products from Northern African Sources)|NPASS|NPEdia|Phenol-explorer|Super Natural II|TCMDB-Taiwan (Traditional Chinese Medicine database)|TCMID (Traditional Chinese Medicine Integrated Database)|TIPdb (database of Taiwan indigenous plants)|UNPD (Universal Natural Products Database)|VietHerb|Watermelon

>  <dois>  (526) 
10.1002/ptr.5663|10.1016/0031-9422(90)85231-4|10.1016/s0031-9422(00)84889-x|10.1016/s0305-1978(99)00045-9|10.1021/acs.jnatprod.9b00233|10.1021/np049622e|10.1021/np50050a065

>  <synonyms>  (526) 
2068-02-2|Quercetin 3|7-dimethyl ether|3|7-Dimethylquercetin|2-(3|4-Dihydroxyphenyl)-5-hydroxy-3|7-dimethoxy-4-benzopyrone|3'|4'|5-Trihydroxy-3|7-dimethoxyflavone|V8R92XSR1M|CHEMBL164861|2-(3|4-dihydroxyphenyl)-5-hydroxy-3|7-dimethoxychromen-4-one|CHEBI:18010|4H-1-Benzopyran-4-one| 2-(3|4-dihydroxyphenyl)-5-hydroxy-3|7-dimethoxy-|3|7-Dimethoxy-5|3'|4'-trihydroxyflavone|Flavone| 3'|4'|5-trihydroxy-3|7-dimethoxy-|DTHF|UNII-V8R92XSR1M|C01265|FENOFIBRICACIDETHYLESTER|SCHEMBL828941|DTXSID40174734|HY-N1798|EINECS 218-187-4|BDBM50240897|LMPK12112731|AKOS025288164|FS-8747|PD119377|CS-0017651|NS00045988|Q27102757|3|7-di-O-methylquercetin

>  <cas>  (526) 
2068-02-2

$$$$

     RDKit          2D

 31 34  0  0  0  0  0  0  0  0999 V2000
   -1.3984    1.0376    0.0000 C   0  0  0  0  0  0  0  0  0  0  0  0
   -2.3072   -0.1557    0.0000 C   0  0  0  0  0  3  0  0  0  0  0  0
   -3.7951    0.0347    0.0000 C   0  0  0  0  0  0  0  0  0  0  0  0
   -4.3741    1.4185    0.0000 C   0  0  0  0  0  0  0  0  0  0  0  0
   -5.8619    1.6089    0.0000 C   0  0  0  0  0  0  0  0  0  0  0  0
   -7.3498    1.7993    0.0000 C   0  0  0  0  0  0  0  0  0  0  0  0
   -5.6715    3.0967    0.0000 O   0  0  0  0  0  0  0  0  0  0  0  0
   -6.0524    0.1210    0.0000 C   0  0  0  0  0  0  0  0  0  0  0  0
   -7.4361   -0.4580    0.0000 C   0  0  0  0  0  0  0  0  0  0  0  0
   -4.8590   -0.7878    0.0000 O   0  0  0  0  0  0  0  0  0  0  0  0
   -1.7282   -1.5394    0.0000 C   0  0  0  0  0  0  0  0  0  0  0  0
   -3.1648   -1.9706    0.0000 C   0  0  0  0  0  0  0  0  0  0  0  0
   -1.4495   -3.0133    0.0000 C   0  0  0  0  0  0  0  0  0  0  0  0
    0.0384   -3.2037    0.0000 C   0  0  0  0  0  0  0  0  0  0  0  0
    0.6792   -1.8475    0.0000 C   0  0  0  0  0  0  0  0  0  0  0  0
    2.1159   -1.4163    0.0000 C   0  0  0  0  0  0  0  0  0  0  0  0
    3.2077   -2.4449    0.0000 C   0  0  0  0  0  0  0  0  0  0  0  0
    4.6444   -2.0137    0.0000 C   0  0  0  0  0  0  0  0  0  0  0  0
    4.9893   -0.5539    0.0000 C   0  0  0  0  0  0  0  0  0  0  0  0
    6.4260   -0.1227    0.0000 C   0  0  0  0  0  0  0  0  0  0  0  0
    6.7709    1.3371    0.0000 C   0  0  0  0  0  3  0  0  0  0  0  0
    8.2076    1.7683    0.0000 O   0  0  0  0  0  0  0  0  0  0  0  0
    5.6791    2.3657    0.0000 C   0  0  0  0  0  0  0  0  0  0  0  0
    4.2424    1.9345    0.0000 C   0  0  0  0  0  0  0  0  0  0  0  0
    3.8975    0.4747    0.0000 C   0  0  0  0  0  0  0  0  0  0  0  0
    2.8057    1.5033    0.0000 C   0  0  0  0  0  0  0  0  0  0  0  0
    2.4608    0.0435    0.0000 C   0  0  0  0  0  0  0  0  0  0  0  0
    1.3690    1.0721    0.0000 C   0  0  0  0  0  0  0  0  0  0  0  0
   -0.0676    0.6409    0.0000 C   0  0  0  0  0  0  0  0  0  0  0  0
   -0.4125   -0.8189    0.0000 C   0  0  0  0  0  0  0  0  0  0  0  0
   -1.6059    0.0899    0.0000 C   0  0  0  0  0  0  0  0  0  0  0  0
  1  2  1  0
  2  3  1  0
  3  4  1  0
  4  5  1  0
  5  6  1  0
  5  7  1  0
  5  8  1  0
  8  9  1  0
  8 10  2  0
  2 11  1  0
 11 12  1  1
 11 13  1  0
 13 14  1  0
 14 15  1  0
 15 16  1  0
 16 17  1  0
 17 18  1  0
 18 19  2  0
 19 20  1  0
 20 21  1  0
 21 22  1  0
 21 23  1  0
 23 24  1  0
 24 25  1  0
 25 26  1  6
 25 27  1  0
 27 28  1  0
 28 29  1  0
 29 30  1  0
 30 31  1  6
 30 11  1  0
 30 15  1  0
 27 16  1  0
 25 19  1  0
M  RAD  2   2   2  21   2
M  END
>  <identifier>  (527) 
CNP0537418.1

>  <canonical_smiles>  (527) 
C[C](CCC(C)(O)C(C)=O)[C@@]1(C)CCC2C3CC=C4C[C](O)CC[C@]4(C)C3CC[C@@]21C

>  <standard_inchi>  (527) 
InChI=1S/C28H44O3/c1-18(9-16-28(6,31)19(2)29)26(4)14-12-24-22-8-7-20-17-21(30)10-13-25(20,3)23(22)11-15-27(24,26)5/h7,22-24,30-31H,8-17H2,1-6H3/t22?,23?,24?,25-,26+,27-,28?/m0/s1

>  <standard_inchi_key>  (527) 
ZSKOZLNFIJRJPW-KKXGYGJTSA-N

>  <name>  (527) 
(6R)-3-hydroxy-6-((3S 10R 13S 17R)-3-hydroxy-10 13 17-trimethyl-2 3 4 7 8 9 10 11 12 13 14 15 16 17-tetradecahydro-1H-cyclopenta[a]phenanthren-17-yl)-3-methylheptan-2-one

>  <iupac_name>  (527) 
3-hydroxy-6-[(10~{R},13~{S},17~{R})-3-hydroxy-10,13,17-trimethyl-2,4,7,8,9,11,12,14,15,16-decahydro-1~{H}-cyclopenta[a]phenanthren-17-yl]-3-methyl-heptan-2-one

>  <annotation_level>  (527) 
5

>  <total_atom_count>  (527) 
75

>  <heavy_atom_count>  (527) 
31

>  <molecular_weight>  (527) 
428.66

>  <exact_molecular_weight>  (527) 
428.32905

>  <molecular_formula>  (527) 
C28H44O3

>  <alogp>  (527) 
6.57

>  <topological_polar_surface_area>  (527) 
57.53

>  <rotatable_bond_count>  (527) 
5

>  <hydrogen_bond_acceptors>  (527) 
3

>  <hydrogen_bond_donors>  (527) 
2

>  <hydrogen_bond_acceptors_lipinski>  (527) 
3

>  <hydrogen_bond_donors_lipinski>  (527) 
2

>  <lipinski_rule_of_five_violations>  (527) 
1

>  <aromatic_rings_count>  (527) 
0

>  <qed_drug_likeliness>  (527) 
0.49

>  <formal_charge>  (527) 
0

>  <fractioncsp3>  (527) 
0.82

>  <number_of_minimal_rings>  (527) 
4

>  <van_der_walls_volume>  (527) 
432.62

>  <contains_sugar>  (527) 
False

>  <contains_ring_sugars>  (527) 
False

>  <contains_linear_sugars>  (527) 
False

>  <murcko_framework>  (527) 
C1=C2CCCCC2C3CCC4CCCC4C3C1

>  <np_likeness>  (527) 
1.51

>  <chemical_class>  (527) 
Steroids and steroid derivatives

>  <chemical_sub_class>  (527) 
Bile acids, alcohols and derivatives

>  <chemical_super_class>  (527) 
Lipids and lipid-like molecules

>  <direct_parent_classification>  (527) 
Bile acids, alcohols and derivatives

>  <np_classifier_pathway>  (527) 
Terpenoids

>  <np_classifier_superclass>  (527) 
Steroids

>  <np_classifier_class>  (527) 
Ergostane steroids

>  <np_classifier_is_glycoside>  (527) 
False

>  <organisms>  (527) 
Physalis nicandroides var. attenuata

>  <collections>  (527) 
BIOFACQUIM

>  <dois>  (527) 
10.1021/acs.jnatprod.9b00233

>  <synonyms>  (527) 
(6R)-3-hydroxy-6-((3S 10R 13S 17R)-3-hydroxy-10 13 17-trimethyl-2 3 4 7 8 9 10 11 12 13 14 15 16 17-tetradecahydro-1H-cyclopentaaphenanthren-17-yl)-3-methylheptan-2-one

>  <cas>  (527) 
nan

$$$$

     RDKit          2D

 13 13  0  0  0  0  0  0  0  0999 V2000
    3.7433   -1.9531    0.0000 C   0  0  0  0  0  0  0  0  0  0  0  0
    3.0817   -0.6068    0.0000 O   0  0  0  0  0  0  0  0  0  0  0  0
    1.5851   -0.5067    0.0000 C   0  0  0  0  0  0  0  0  0  0  0  0
    0.7500   -1.7527    0.0000 C   0  0  0  0  0  0  0  0  0  0  0  0
   -0.7466   -1.6526    0.0000 C   0  0  0  0  0  0  0  0  0  0  0  0
   -1.4082   -0.3064    0.0000 C   0  0  0  0  0  0  0  0  0  0  0  0
   -2.9049   -0.2062    0.0000 C   0  0  0  0  0  0  0  0  0  0  0  0
   -3.7399   -1.4522    0.0000 O   0  0  0  0  0  0  0  0  0  0  0  0
   -3.5664    1.1400    0.0000 O   0  0  0  0  0  0  0  0  0  0  0  0
   -0.5731    0.9397    0.0000 C   0  0  0  0  0  0  0  0  0  0  0  0
    0.9235    0.8395    0.0000 C   0  0  0  0  0  0  0  0  0  0  0  0
    1.7586    2.0856    0.0000 O   0  0  0  0  0  0  0  0  0  0  0  0
    1.0970    3.4318    0.0000 C   0  0  0  0  0  0  0  0  0  0  0  0
  1  2  1  0
  2  3  1  0
  3  4  2  0
  4  5  1  0
  5  6  2  0
  6  7  1  0
  7  8  2  0
  7  9  1  0
  6 10  1  0
 10 11  2  0
 11 12  1  0
 12 13  1  0
 11  3  1  0
M  END
>  <identifier>  (528) 
CNP0328859.0

>  <canonical_smiles>  (528) 
COC1=CC=C(C(=O)O)C=C1OC

>  <standard_inchi>  (528) 
InChI=1S/C9H10O4/c1-12-7-4-3-6(9(10)11)5-8(7)13-2/h3-5H,1-2H3,(H,10,11)

>  <standard_inchi_key>  (528) 
DAUAQNGYDSHRET-UHFFFAOYSA-N

>  <name>  (528) 
3,4-Dimethoxybenzoic acid

>  <iupac_name>  (528) 
3,4-dimethoxybenzoic acid

>  <annotation_level>  (528) 
5

>  <total_atom_count>  (528) 
23

>  <heavy_atom_count>  (528) 
13

>  <molecular_weight>  (528) 
182.17

>  <exact_molecular_weight>  (528) 
182.05791

>  <molecular_formula>  (528) 
C9H10O4

>  <alogp>  (528) 
1.40

>  <topological_polar_surface_area>  (528) 
55.76

>  <rotatable_bond_count>  (528) 
3

>  <hydrogen_bond_acceptors>  (528) 
3

>  <hydrogen_bond_donors>  (528) 
1

>  <hydrogen_bond_acceptors_lipinski>  (528) 
3

>  <hydrogen_bond_donors_lipinski>  (528) 
1

>  <lipinski_rule_of_five_violations>  (528) 
0

>  <aromatic_rings_count>  (528) 
1

>  <qed_drug_likeliness>  (528) 
0.77

>  <formal_charge>  (528) 
0

>  <fractioncsp3>  (528) 
0.22

>  <number_of_minimal_rings>  (528) 
1

>  <van_der_walls_volume>  (528) 
162.94

>  <contains_sugar>  (528) 
False

>  <contains_ring_sugars>  (528) 
False

>  <contains_linear_sugars>  (528) 
False

>  <murcko_framework>  (528) 
c1ccccc1

>  <np_likeness>  (528) 
-0.03

>  <chemical_class>  (528) 
Benzene and substituted derivatives

>  <chemical_sub_class>  (528) 
Benzoic acids and derivatives

>  <chemical_super_class>  (528) 
Benzenoids

>  <direct_parent_classification>  (528) 
P-methoxybenzoic acids and derivatives

>  <np_classifier_pathway>  (528) 
Shikimates and Phenylpropanoids

>  <np_classifier_superclass>  (528) 
Phenolic acids (C6-C1)

>  <np_classifier_class>  (528) 
Cinnamic acids and derivatives

>  <np_classifier_is_glycoside>  (528) 
False

>  <organisms>  (528) 
Acanthopanax senticosus|Aeschynanthus bracteatus|Agelas schmidti|Aloe arborescens|Anagallis monelli|Anaxyrus fowleri|Citrus maxima|Corydalis speciosa|Croton dichogamus|Datura cornigera|Decaryia madagascariensis|Delphinium trifoliolatum|Dendrobium candidum|Dendrobium chrysanthum|Dendrobium chrysotoxum|Dendrobium fimbriatum|Dendrobium loddigesii|Dendrobium nobile|Eliokarmos thyrsoides|Eupatorium rufescens|Fallopia multiflora|Forsythia suspensa|Forsythia viridissima|Gardenia jasminoides|Goniothalamus amuyon|Gymnacranthera paniculata|Herba artemisiae scopariae|Herba glechomae longitubae|Hydnellum zonatum|Jeotgalibacillus marinus|Leucophyllum ambiguum|Lomatium columbianum|Nylandtia spinosa|Orthantha lutea|Papaver albiflorum|Phellinus igniarius|Phyllanthus oligospermus|Protea rubropilosa|Schisandra sphenanthera|Spiraea formosana|Tabebuia avellanedae|Tecomella undulata|Trifolium pratense|Trollius macropetalus

>  <collections>  (528) 
Australian natural products|BIOFACQUIM|CMAUP (cCollective molecular activities of useful plants)|FooDB|KNApSaCK|Latin America dataset|NPASS|NPEdia|PubChem NPs|Specs Natural Products|Super Natural II|TCMDB-Taiwan (Traditional Chinese Medicine database)|TCMID (Traditional Chinese Medicine Integrated Database)|TIPdb (database of Taiwan indigenous plants)|UEFS (Natural Products Databse of the UEFS)|UNPD (Universal Natural Products Database)|ZINC NP

>  <dois>  (528) 
10.1007/s10600-009-9405-z|10.1021/acs.jnatprod.9b00759|10.1021/np50054a008

>  <synonyms>  (528) 
VERATRIC ACID|93-07-2|Benzoic acid| 3|4-dimethoxy-|Dimethylprotocatechuic acid|Veratrylic acid|Veratrumenoic acid|3|4-Dimethoxy-benzoic acid|MFCD00002500|3|4-Dimethoxybenzoic acid (Veratric acid)|NSC 7721|CHEBI:296881|1YY04E7RR4|CHEMBL118903|NSC-7721|EINECS 202-215-7|BRN 0518285|UNII-1YY04E7RR4|3|4-Dimethoxybenzoic Acid; Mebeverine Hydrochloride Imp. D (Pharmeuropa); Veratric Acid; Mebeverine Hydrochloride Impurity D; Mebeverine Impurity D|Spectrum_000512|Spectrum2_001082|Spectrum3_001774|Spectrum4_001582|Spectrum5_000264|bmse010207|Epitope ID:119695|EC 202-215-7|VERATRIC ACID MI|BSPBio_003267|KBioGR_002164|KBioSS_000992|SPECTRUM212140|VERATRIC ACID INCI|MLS002207141|SCHEMBL114848|SPBio_001124|METHYL2-BENZYLOXYBENZOATE|3|4-bis(methyloxy)benzoic acid|DTXSID6059077|KBio2_000992|KBio2_003560|KBio2_006128|KBio3_002768|Protocatechuic Acid Dimethyl Ether|AMY40073|HY-N2007|BBL025942|BDBM50336487|CCG-39276|STK397279|3|4-Dimethoxybenzoic acid| >=99%|AKOS000119433|BS-3989|SDCCGMLS-0066972.P001|NCGC00095539-01|AC-10246|SMR000112092|SY010549|CS-0018327|D0631|NS00004303|EN300-20508|D71090|Q425928|SR-05000002417|W-100257|BRD-K14520048-001-02-6|F2191-0107|MEBEVERINE HYDROCHLORIDE IMPURITY D EP IMPURITY|Z104478452|InChI=1\/C9H10O4\/c1-12-7-4-3-6(9(10)11)5-8(7)13-2\/h3-5H|1-2H3|(H|10|11|TWO|veratric acid

>  <cas>  (528) 
93-07-2

$$$$

     RDKit          2D

 30 32  0  0  0  0  0  0  0  0999 V2000
    4.8105   -4.8859    0.0000 C   0  0  0  0  0  0  0  0  0  0  0  0
    5.1497   -3.4247    0.0000 C   0  0  0  0  0  0  0  0  0  0  0  0
    6.5846   -2.9878    0.0000 O   0  0  0  0  0  0  0  0  0  0  0  0
    4.0538   -2.4004    0.0000 C   0  0  0  0  0  0  0  0  0  0  0  0
    2.6189   -2.8373    0.0000 C   0  0  0  0  0  0  0  0  0  0  0  0
    1.5230   -1.8130    0.0000 C   0  0  0  0  0  0  0  0  0  0  0  0
    1.8622   -0.3518    0.0000 C   0  0  0  0  0  0  0  0  0  0  0  0
    0.7664    0.6724    0.0000 C   0  0  0  0  0  0  0  0  0  0  0  0
   -0.4327   -0.2289    0.0000 C   0  0  0  0  0  0  0  0  0  0  0  0
   -1.8127    0.3589    0.0000 O   0  0  0  0  0  0  0  0  0  0  0  0
   -3.0117   -0.5424    0.0000 C   0  0  0  0  0  0  0  0  0  0  0  0
   -2.8307   -2.0315    0.0000 O   0  0  0  0  0  0  0  0  0  0  0  0
   -4.3918    0.0453    0.0000 C   0  0  0  0  0  0  0  0  0  0  0  0
   -5.5908   -0.8560    0.0000 C   0  0  0  0  0  0  0  0  0  0  0  0
   -6.9709   -0.2683    0.0000 C   0  0  0  0  0  0  0  0  0  0  0  0
   -7.1519    1.2207    0.0000 C   0  0  0  0  0  0  0  0  0  0  0  0
   -8.5320    1.8084    0.0000 C   0  0  0  0  0  0  0  0  0  0  0  0
   -9.7310    0.9071    0.0000 C   0  0  0  0  0  0  0  0  0  0  0  0
   -9.5500   -0.5819    0.0000 C   0  0  0  0  0  0  0  0  0  0  0  0
   -8.1699   -1.1696    0.0000 C   0  0  0  0  0  0  0  0  0  0  0  0
    0.0870    2.0098    0.0000 C   0  0  0  0  0  0  0  0  0  0  0  0
    1.5848    1.9295    0.0000 O   0  0  0  0  0  0  0  0  0  0  0  0
    3.2972    0.0850    0.0000 C   0  0  0  0  0  0  0  0  0  0  0  0
    3.6363    1.5462    0.0000 O   0  0  0  0  0  0  0  0  0  0  0  0
    5.0713    1.9830    0.0000 C   0  0  0  0  0  0  0  0  0  0  0  0
    6.1671    0.9588    0.0000 O   0  0  0  0  0  0  0  0  0  0  0  0
    5.4104    3.4442    0.0000 C   0  0  0  0  0  0  0  0  0  0  0  0
    6.8454    3.8811    0.0000 C   0  0  0  0  0  0  0  0  0  0  0  0
    4.3146    4.4685    0.0000 C   0  0  0  0  0  0  0  0  0  0  0  0
    4.3930   -0.9393    0.0000 C   0  0  0  0  0  0  0  0  0  0  0  0
  1  2  1  0
  2  3  2  0
  2  4  1  0
  4  5  2  0
  5  6  1  0
  6  7  2  0
  7  8  1  0
  8  9  1  1
  9 10  1  0
 10 11  1  0
 11 12  2  0
 11 13  1  0
 13 14  2  0
 14 15  1  0
 15 16  2  0
 16 17  1  0
 17 18  2  0
 18 19  1  0
 19 20  2  0
  8 21  1  0
 21 22  1  0
  7 23  1  0
 23 24  1  0
 24 25  1  0
 25 26  2  0
 25 27  1  0
 27 28  1  0
 27 29  1  0
 23 30  2  0
 30  4  1  0
 22  8  1  0
 20 15  1  0
M  END
>  <identifier>  (529) 
CNP0530524.1

>  <canonical_smiles>  (529) 
CC(=O)C1=CC=C([C@]2(COC(=O)/C=C/C3=CC=CC=C3)CO2)C(OC(=O)C(C)C)=C1

>  <standard_inchi>  (529) 
InChI=1S/C24H24O6/c1-16(2)23(27)30-21-13-19(17(3)25)10-11-20(21)24(15-29-24)14-28-22(26)12-9-18-7-5-4-6-8-18/h4-13,16H,14-15H2,1-3H3/b12-9+/t24-/m0/s1

>  <standard_inchi_key>  (529) 
JPNWPSSRLFRLGC-LUFJGRFYSA-N

>  <name>  (529) 
areolal

>  <iupac_name>  (529) 
[5-acetyl-2-[(2~{R})-2-[[(~{E})-3-phenylprop-2-enoyl]oxymethyl]oxiran-2-yl]phenyl] 2-methylpropanoate

>  <annotation_level>  (529) 
5

>  <total_atom_count>  (529) 
54

>  <heavy_atom_count>  (529) 
30

>  <molecular_weight>  (529) 
408.45

>  <exact_molecular_weight>  (529) 
408.15729

>  <molecular_formula>  (529) 
C24H24O6

>  <alogp>  (529) 
3.93

>  <topological_polar_surface_area>  (529) 
82.20

>  <rotatable_bond_count>  (529) 
8

>  <hydrogen_bond_acceptors>  (529) 
6

>  <hydrogen_bond_donors>  (529) 
0

>  <hydrogen_bond_acceptors_lipinski>  (529) 
6

>  <hydrogen_bond_donors_lipinski>  (529) 
0

>  <lipinski_rule_of_five_violations>  (529) 
0

>  <aromatic_rings_count>  (529) 
2

>  <qed_drug_likeliness>  (529) 
0.22

>  <formal_charge>  (529) 
0

>  <fractioncsp3>  (529) 
0.29

>  <number_of_minimal_rings>  (529) 
3

>  <van_der_walls_volume>  (529) 
375.09

>  <contains_sugar>  (529) 
False

>  <contains_ring_sugars>  (529) 
False

>  <contains_linear_sugars>  (529) 
False

>  <murcko_framework>  (529) 
O(CC=Cc1ccccc1)CC2(OC2)c3ccccc3

>  <np_likeness>  (529) 
0.85

>  <chemical_class>  (529) 
Organooxygen compounds

>  <chemical_sub_class>  (529) 
Carbonyl compounds

>  <chemical_super_class>  (529) 
Organic oxygen compounds

>  <direct_parent_classification>  (529) 
Alkyl-phenylketones

>  <np_classifier_pathway>  (529) 
Shikimates and Phenylpropanoids

>  <np_classifier_superclass>  (529) 
Phenylpropanoids (C6-C3)

>  <np_classifier_class>  (529) 
Cinnamic acids and derivatives

>  <np_classifier_is_glycoside>  (529) 
False

>  <organisms>  (529) 
Piptothrix areolare

>  <collections>  (529) 
BIOFACQUIM

>  <dois>  (529) 
10.1021/acs.jnatprod.9b00734

>  <synonyms>  (529) 
areolal

>  <cas>  (529) 
nan

$$$$

     RDKit          2D

 31 35  0  0  0  0  0  0  0  0999 V2000
    8.7625   -1.3397    0.0000 C   0  0  0  0  0  0  0  0  0  0  0  0
    7.8571   -0.1438    0.0000 O   0  0  0  0  0  0  0  0  0  0  0  0
    6.3687   -0.3299    0.0000 C   0  0  0  0  0  0  0  0  0  0  0  0
    5.7857   -1.7120    0.0000 C   0  0  0  0  0  0  0  0  0  0  0  0
    4.2973   -1.8981    0.0000 C   0  0  0  0  0  0  0  0  0  0  0  0
    3.3919   -0.7022    0.0000 C   0  0  0  0  0  0  0  0  0  0  0  0
    1.9035   -0.8883    0.0000 C   0  0  0  0  0  3  0  0  0  0  0  0
    1.1792   -2.2019    0.0000 O   0  0  0  0  0  0  0  0  0  0  0  0
   -0.2939   -1.9189    0.0000 C   0  0  0  0  0  0  0  0  0  0  0  0
   -1.3886   -2.9444    0.0000 O   0  0  0  0  0  0  0  0  0  0  0  0
   -0.4800   -0.4305    0.0000 C   0  0  0  0  0  0  0  0  0  0  0  0
   -1.5055    0.6642    0.0000 C   0  0  0  0  0  3  0  0  0  0  0  0
   -2.9939    0.4781    0.0000 C   0  0  0  0  0  0  0  0  0  0  0  0
   -3.5769   -0.9040    0.0000 C   0  0  0  0  0  0  0  0  0  0  0  0
   -5.0653   -1.0901    0.0000 C   0  0  0  0  0  0  0  0  0  0  0  0
   -5.6483   -2.4722    0.0000 O   0  0  0  0  0  0  0  0  0  0  0  0
   -4.7429   -3.6681    0.0000 C   0  0  0  0  0  0  0  0  0  0  0  0
   -5.9707    0.1058    0.0000 C   0  0  0  0  0  0  0  0  0  0  0  0
   -7.4653    0.2332    0.0000 O   0  0  0  0  0  0  0  0  0  0  0  0
   -7.8060    1.6940    0.0000 C   0  0  0  0  0  0  0  0  0  0  0  0
   -6.5220    2.4694    0.0000 O   0  0  0  0  0  0  0  0  0  0  0  0
   -5.3877    1.4879    0.0000 C   0  0  0  0  0  0  0  0  0  0  0  0
   -3.8993    1.6740    0.0000 C   0  0  0  0  0  0  0  0  0  0  0  0
   -0.7812    1.9778    0.0000 O   0  0  0  0  0  0  0  0  0  0  0  0
    0.6919    1.6948    0.0000 C   0  0  0  0  0  0  0  0  0  0  0  0
    1.7866    2.7203    0.0000 O   0  0  0  0  0  0  0  0  0  0  0  0
    0.8780    0.2064    0.0000 C   0  0  0  0  0  0  0  0  0  0  0  0
    3.9749    0.6799    0.0000 C   0  0  0  0  0  0  0  0  0  0  0  0
    5.4633    0.8660    0.0000 C   0  0  0  0  0  0  0  0  0  0  0  0
    6.0463    2.2481    0.0000 O   0  0  0  0  0  0  0  0  0  0  0  0
    5.1409    3.4440    0.0000 C   0  0  0  0  0  0  0  0  0  0  0  0
  1  2  1  0
  2  3  1  0
  3  4  2  0
  4  5  1  0
  5  6  2  0
  6  7  1  0
  7  8  1  0
  8  9  1  0
  9 10  1  0
  9 11  1  0
 11 12  1  0
 12 13  1  0
 13 14  2  0
 14 15  1  0
 15 16  1  0
 16 17  1  0
 15 18  2  0
 18 19  1  0
 19 20  1  0
 20 21  1  0
 21 22  1  0
 22 23  2  0
 12 24  1  0
 24 25  1  0
 25 26  2  0
 25 27  1  0
  6 28  1  0
 28 29  2  0
 29 30  1  0
 30 31  1  0
 29  3  1  0
 27  7  1  0
 27 11  1  0
 23 13  1  0
 22 18  1  0
M  RAD  2   7   2  12   2
M  END
>  <identifier>  (530) 
CNP0518380.0

>  <canonical_smiles>  (530) 
COC1=CC=C([C]2OC(O)C3[C](C4=CC(OC)=C5OCOC5=C4)OC(=O)C23)C=C1OC

>  <standard_inchi>  (530) 
InChI=1S/C22H20O9/c1-25-12-5-4-10(6-13(12)26-2)18-16-17(22(24)30-18)19(31-21(16)23)11-7-14(27-3)20-15(8-11)28-9-29-20/h4-8,16-17,22,24H,9H2,1-3H3

>  <standard_inchi_key>  (530) 
VOYPWGKPJZJFTA-UHFFFAOYSA-N

>  <name>  (530) 
Ciquitin A

>  <iupac_name>  (530) 
3-(3,4-dimethoxyphenyl)-1-hydroxy-6-(7-methoxy-1,3-benzodioxol-5-yl)-3~{a},6~{a}-dihydro-1~{H}-furo[3,4-c]furan-4-one

>  <annotation_level>  (530) 
5

>  <total_atom_count>  (530) 
51

>  <heavy_atom_count>  (530) 
31

>  <molecular_weight>  (530) 
428.39

>  <exact_molecular_weight>  (530) 
428.11073

>  <molecular_formula>  (530) 
C22H20O9

>  <alogp>  (530) 
2.04

>  <topological_polar_surface_area>  (530) 
101.91

>  <rotatable_bond_count>  (530) 
5

>  <hydrogen_bond_acceptors>  (530) 
9

>  <hydrogen_bond_donors>  (530) 
1

>  <hydrogen_bond_acceptors_lipinski>  (530) 
9

>  <hydrogen_bond_donors_lipinski>  (530) 
1

>  <lipinski_rule_of_five_violations>  (530) 
0

>  <aromatic_rings_count>  (530) 
2

>  <qed_drug_likeliness>  (530) 
0.72

>  <formal_charge>  (530) 
0

>  <fractioncsp3>  (530) 
0.32

>  <number_of_minimal_rings>  (530) 
5

>  <van_der_walls_volume>  (530) 
358.49

>  <contains_sugar>  (530) 
False

>  <contains_ring_sugars>  (530) 
False

>  <contains_linear_sugars>  (530) 
False

>  <murcko_framework>  (530) 
O1c2ccc(cc2OC1)C3OCC4C(OCC34)c5ccccc5

>  <np_likeness>  (530) 
0.75

>  <chemical_class>  (530) 
Lignan lactones

>  <chemical_sub_class>  (530) 
Lignan lactones

>  <chemical_super_class>  (530) 
Lignans, neolignans and related compounds

>  <direct_parent_classification>  (530) 
Lignan lactones

>  <np_classifier_pathway>  (530) 
Shikimates and Phenylpropanoids

>  <np_classifier_superclass>  (530) 
Lignans

>  <np_classifier_class>  (530) 
Arylnaphthalene and aryltetralin lignans

>  <np_classifier_is_glycoside>  (530) 
True

>  <organisms>  (530) 
Leucophyllum ambiguum

>  <collections>  (530) 
BIOFACQUIM

>  <dois>  (530) 
10.1021/acs.jnatprod.9b00759

>  <synonyms>  (530) 
Ciquitin A

>  <cas>  (530) 
nan

$$$$

     RDKit          2D

 30 33  0  0  0  0  0  0  0  0999 V2000
    8.5087   -1.5632    0.0000 C   0  0  0  0  0  0  0  0  0  0  0  0
    7.6509   -0.3326    0.0000 O   0  0  0  0  0  0  0  0  0  0  0  0
    6.1564   -0.4601    0.0000 C   0  0  0  0  0  0  0  0  0  0  0  0
    5.5195   -1.8182    0.0000 C   0  0  0  0  0  0  0  0  0  0  0  0
    4.0249   -1.9457    0.0000 C   0  0  0  0  0  0  0  0  0  0  0  0
    3.1672   -0.7151    0.0000 C   0  0  0  0  0  0  0  0  0  0  0  0
    1.6727   -0.8426    0.0000 C   0  0  0  0  0  3  0  0  0  0  0  0
    0.8973   -2.1267    0.0000 O   0  0  0  0  0  0  0  0  0  0  0  0
   -0.5635   -1.7861    0.0000 C   0  0  0  0  0  0  0  0  0  0  0  0
   -1.6977   -2.7678    0.0000 O   0  0  0  0  0  0  0  0  0  0  0  0
   -0.6910   -0.2916    0.0000 C   0  0  0  0  0  3  0  0  0  0  0  0
    0.6910    0.2916    0.0000 C   0  0  0  0  0  3  0  0  0  0  0  0
    0.5635    1.7861    0.0000 C   0  0  0  0  0  3  0  0  0  0  0  0
    1.6977    2.7678    0.0000 O   0  0  0  0  0  0  0  0  0  0  0  0
   -0.8973    2.1267    0.0000 O   0  0  0  0  0  0  0  0  0  0  0  0
   -1.6727    0.8426    0.0000 C   0  0  0  0  0  3  0  0  0  0  0  0
   -3.1672    0.7151    0.0000 C   0  0  0  0  0  0  0  0  0  0  0  0
   -4.0249    1.9457    0.0000 C   0  0  0  0  0  0  0  0  0  0  0  0
   -5.5195    1.8182    0.0000 C   0  0  0  0  0  0  0  0  0  0  0  0
   -6.1564    0.4601    0.0000 C   0  0  0  0  0  0  0  0  0  0  0  0
   -7.6509    0.3326    0.0000 O   0  0  0  0  0  0  0  0  0  0  0  0
   -8.5087    1.5632    0.0000 C   0  0  0  0  0  0  0  0  0  0  0  0
   -5.2987   -0.7705    0.0000 C   0  0  0  0  0  0  0  0  0  0  0  0
   -5.9355   -2.1286    0.0000 O   0  0  0  0  0  0  0  0  0  0  0  0
   -5.0778   -3.3592    0.0000 C   0  0  0  0  0  0  0  0  0  0  0  0
   -3.8041   -0.6430    0.0000 C   0  0  0  0  0  0  0  0  0  0  0  0
    3.8041    0.6430    0.0000 C   0  0  0  0  0  0  0  0  0  0  0  0
    5.2987    0.7705    0.0000 C   0  0  0  0  0  0  0  0  0  0  0  0
    5.9355    2.1286    0.0000 O   0  0  0  0  0  0  0  0  0  0  0  0
    5.0778    3.3592    0.0000 C   0  0  0  0  0  0  0  0  0  0  0  0
  1  2  1  0
  2  3  1  0
  3  4  2  0
  4  5  1  0
  5  6  2  0
  6  7  1  0
  7  8  1  0
  8  9  1  0
  9 10  2  0
  9 11  1  0
 11 12  1  0
 12 13  1  0
 13 14  1  0
 13 15  1  0
 15 16  1  0
 16 17  1  0
 17 18  2  0
 18 19  1  0
 19 20  2  0
 20 21  1  0
 21 22  1  0
 20 23  1  0
 23 24  1  0
 24 25  1  0
 23 26  2  0
  6 27  1  0
 27 28  2  0
 28 29  1  0
 29 30  1  0
 28  3  1  0
 12  7  1  0
 26 17  1  0
 16 11  1  0
M  RAD  5   7   2  11   2  12   2  13   2  16   2
M  END
>  <identifier>  (531) 
CNP0588516.0

>  <canonical_smiles>  (531) 
COC1=CC=C([C]2OC(=O)[C]3[C]2[C](O)O[C]3C2=CC=C(OC)C(OC)=C2)C=C1OC

>  <standard_inchi>  (531) 
InChI=1S/C22H19O8/c1-25-13-7-5-11(9-15(13)27-3)19-17-18(22(24)29-19)20(30-21(17)23)12-6-8-14(26-2)16(10-12)28-4/h5-10,23H,1-4H3

>  <standard_inchi_key>  (531) 
ANUKNQMCFZVHMV-UHFFFAOYSA-N

>  <name>  (531) 
Ciquitin B

>  <iupac_name>  (531) 
1,4-bis(3,4-dimethoxyphenyl)-3-hydroxy-furo[3,4-c]furan-6-one

>  <annotation_level>  (531) 
5

>  <total_atom_count>  (531) 
49

>  <heavy_atom_count>  (531) 
30

>  <molecular_weight>  (531) 
411.39

>  <exact_molecular_weight>  (531) 
411.10799

>  <molecular_formula>  (531) 
C22H19O8

>  <alogp>  (531) 
2.78

>  <topological_polar_surface_area>  (531) 
92.68

>  <rotatable_bond_count>  (531) 
6

>  <hydrogen_bond_acceptors>  (531) 
8

>  <hydrogen_bond_donors>  (531) 
1

>  <hydrogen_bond_acceptors_lipinski>  (531) 
8

>  <hydrogen_bond_donors_lipinski>  (531) 
1

>  <lipinski_rule_of_five_violations>  (531) 
0

>  <aromatic_rings_count>  (531) 
2

>  <qed_drug_likeliness>  (531) 
0.73

>  <formal_charge>  (531) 
0

>  <fractioncsp3>  (531) 
0.18

>  <number_of_minimal_rings>  (531) 
4

>  <van_der_walls_volume>  (531) 
352.91

>  <contains_sugar>  (531) 
False

>  <contains_ring_sugars>  (531) 
False

>  <contains_linear_sugars>  (531) 
False

>  <murcko_framework>  (531) 
O1CC2C(OCC2C1c3ccccc3)c4ccccc4

>  <np_likeness>  (531) 
0.12

>  <chemical_class>  (531) 
Lignan lactones

>  <chemical_sub_class>  (531) 
Lignan lactones

>  <chemical_super_class>  (531) 
Lignans, neolignans and related compounds

>  <direct_parent_classification>  (531) 
Lignan lactones

>  <np_classifier_pathway>  (531) 
Shikimates and Phenylpropanoids

>  <np_classifier_superclass>  (531) 
nan

>  <np_classifier_class>  (531) 
nan

>  <np_classifier_is_glycoside>  (531) 
True

>  <organisms>  (531) 
Leucophyllum ambiguum

>  <collections>  (531) 
BIOFACQUIM

>  <dois>  (531) 
10.1021/acs.jnatprod.9b00759

>  <synonyms>  (531) 
Ciquitin B

>  <cas>  (531) 
nan

$$$$

     RDKit          2D

 12 13  0  0  0  0  0  0  0  0999 V2000
   -3.4190    1.3307    0.0000 C   0  0  0  0  0  0  0  0  0  0  0  0
   -2.6875    0.0212    0.0000 O   0  0  0  0  0  0  0  0  0  0  0  0
   -1.1876    0.0000    0.0000 C   0  0  0  0  0  0  0  0  0  0  0  0
   -0.4193    1.2883    0.0000 C   0  0  0  0  0  0  0  0  0  0  0  0
    1.0805    1.2671    0.0000 C   0  0  0  0  0  0  0  0  0  0  0  0
    1.8488    2.5555    0.0000 O   0  0  0  0  0  0  0  0  0  0  0  0
    1.8121   -0.0424    0.0000 C   0  0  0  0  0  0  0  0  0  0  0  0
    2.5436   -1.3519    0.0000 O   0  0  0  0  0  0  0  0  0  0  0  0
    1.0438   -1.3307    0.0000 C   0  0  0  0  0  0  0  0  0  0  0  0
    1.0650    0.1692    0.0000 C   0  0  0  0  0  0  0  0  0  0  0  0
   -0.4561   -1.3095    0.0000 C   0  0  0  0  0  0  0  0  0  0  0  0
   -1.2243   -2.5978    0.0000 O   0  0  0  0  0  0  0  0  0  0  0  0
  1  2  1  0
  2  3  1  0
  3  4  2  0
  4  5  1  0
  5  6  2  0
  5  7  1  0
  7  8  1  6
  8  9  1  0
  9 10  1  1
  9 11  1  0
 11 12  1  1
 11  3  1  0
  9  7  1  0
M  END
>  <identifier>  (532) 
CNP0177366.2

>  <canonical_smiles>  (532) 
COC1=CC(=O)[C@@H]2O[C@]2(C)[C@H]1O

>  <standard_inchi>  (532) 
InChI=1S/C8H10O4/c1-8-6(10)5(11-2)3-4(9)7(8)12-8/h3,6-7,10H,1-2H3/t6-,7-,8+/m0/s1

>  <standard_inchi_key>  (532) 
AIVUQNKTJDAYQX-BIIVOSGPSA-N

>  <name>  (532) 
nan

>  <iupac_name>  (532) 
(1~{R},5~{S},6~{R})-5-hydroxy-4-methoxy-6-methyl-7-oxabicyclo[4.1.0]hept-3-en-2-one

>  <annotation_level>  (532) 
5

>  <total_atom_count>  (532) 
22

>  <heavy_atom_count>  (532) 
12

>  <molecular_weight>  (532) 
170.16

>  <exact_molecular_weight>  (532) 
170.05791

>  <molecular_formula>  (532) 
C8H10O4

>  <alogp>  (532) 
-0.38

>  <topological_polar_surface_area>  (532) 
59.06

>  <rotatable_bond_count>  (532) 
1

>  <hydrogen_bond_acceptors>  (532) 
4

>  <hydrogen_bond_donors>  (532) 
1

>  <hydrogen_bond_acceptors_lipinski>  (532) 
4

>  <hydrogen_bond_donors_lipinski>  (532) 
1

>  <lipinski_rule_of_five_violations>  (532) 
0

>  <aromatic_rings_count>  (532) 
0

>  <qed_drug_likeliness>  (532) 
0.54

>  <formal_charge>  (532) 
0

>  <fractioncsp3>  (532) 
0.63

>  <number_of_minimal_rings>  (532) 
2

>  <van_der_walls_volume>  (532) 
150.00

>  <contains_sugar>  (532) 
False

>  <contains_ring_sugars>  (532) 
False

>  <contains_linear_sugars>  (532) 
False

>  <murcko_framework>  (532) 
O1C2CC=CCC12

>  <np_likeness>  (532) 
2.93

>  <chemical_class>  (532) 
Organooxygen compounds

>  <chemical_sub_class>  (532) 
Carbonyl compounds

>  <chemical_super_class>  (532) 
Organic oxygen compounds

>  <direct_parent_classification>  (532) 
Cyclohexenones

>  <np_classifier_pathway>  (532) 
Polyketides

>  <np_classifier_superclass>  (532) 
Meroterpenoids

>  <np_classifier_class>  (532) 
nan

>  <np_classifier_is_glycoside>  (532) 
False

>  <organisms>  (532) 
Xylaria feejeensis

>  <collections>  (532) 
BIOFACQUIM|EMNPD|Latin America dataset

>  <dois>  (532) 
10.1021/acs.jafc.6b01111

>  <synonyms>  (532) 
Coriloxine

>  <cas>  (532) 
nan

$$$$

     RDKit          2D

 28 32  0  0  0  0  0  0  0  0999 V2000
    8.4347   -1.1001    0.0000 C   0  0  0  0  0  0  0  0  0  0  0  0
    7.4510    0.0323    0.0000 O   0  0  0  0  0  0  0  0  0  0  0  0
    5.9785   -0.2534    0.0000 C   0  0  0  0  0  0  0  0  0  0  0  0
    5.4896   -1.6715    0.0000 C   0  0  0  0  0  0  0  0  0  0  0  0
    4.0171   -1.9572    0.0000 C   0  0  0  0  0  0  0  0  0  0  0  0
    3.0334   -0.8247    0.0000 C   0  0  0  0  0  0  0  0  0  0  0  0
    1.5609   -1.1104    0.0000 C   0  0  0  0  0  3  0  0  0  0  0  0
    0.9264   -2.4697    0.0000 O   0  0  0  0  0  0  0  0  0  0  0  0
   -0.5623   -2.2863    0.0000 C   0  0  0  0  0  0  0  0  0  0  0  0
   -0.8480   -0.8138    0.0000 C   0  0  0  0  0  3  0  0  0  0  0  0
    0.4642   -0.0870    0.0000 C   0  0  0  0  0  3  0  0  0  0  0  0
    0.1785    1.3855    0.0000 C   0  0  0  0  0  0  0  0  0  0  0  0
    1.2019    2.4822    0.0000 O   0  0  0  0  0  0  0  0  0  0  0  0
   -1.3102    1.5689    0.0000 O   0  0  0  0  0  0  0  0  0  0  0  0
   -1.9447    0.2096    0.0000 C   0  0  0  0  0  3  0  0  0  0  0  0
   -3.4172   -0.0761    0.0000 C   0  0  0  0  0  0  0  0  0  0  0  0
   -3.9061   -1.4942    0.0000 C   0  0  0  0  0  0  0  0  0  0  0  0
   -5.3786   -1.7798    0.0000 C   0  0  0  0  0  0  0  0  0  0  0  0
   -6.3623   -0.6474    0.0000 C   0  0  0  0  0  0  0  0  0  0  0  0
   -7.8621   -0.6207    0.0000 O   0  0  0  0  0  0  0  0  0  0  0  0
   -8.3001    0.8139    0.0000 C   0  0  0  0  0  0  0  0  0  0  0  0
   -7.0711    1.6738    0.0000 O   0  0  0  0  0  0  0  0  0  0  0  0
   -5.8734    0.7707    0.0000 C   0  0  0  0  0  0  0  0  0  0  0  0
   -4.4009    1.0564    0.0000 C   0  0  0  0  0  0  0  0  0  0  0  0
    3.5223    0.5934    0.0000 C   0  0  0  0  0  0  0  0  0  0  0  0
    4.9948    0.8790    0.0000 C   0  0  0  0  0  0  0  0  0  0  0  0
    5.4837    2.2971    0.0000 O   0  0  0  0  0  0  0  0  0  0  0  0
    4.5000    3.4296    0.0000 C   0  0  0  0  0  0  0  0  0  0  0  0
  1  2  1  0
  2  3  1  0
  3  4  2  0
  4  5  1  0
  5  6  2  0
  6  7  1  0
  7  8  1  0
  8  9  1  0
  9 10  1  0
 10 11  1  0
 11 12  1  0
 12 13  2  0
 12 14  1  0
 14 15  1  0
 15 16  1  0
 16 17  2  0
 17 18  1  0
 18 19  2  0
 19 20  1  0
 20 21  1  0
 21 22  1  0
 22 23  1  0
 23 24  2  0
  6 25  1  0
 25 26  2  0
 26 27  1  0
 27 28  1  0
 26  3  1  0
 11  7  1  0
 24 16  1  0
 15 10  1  0
 23 19  1  0
M  RAD  4   7   2  10   2  11   2  15   2
M  END
>  <identifier>  (533) 
CNP0486452.0

>  <canonical_smiles>  (533) 
COC1=CC=C([C]2OC[C]3[C]2C(=O)O[C]3C2=CC=C3OCOC3=C2)C=C1OC

>  <standard_inchi>  (533) 
InChI=1S/C21H16O7/c1-23-14-5-3-12(7-16(14)24-2)20-18-13(9-25-20)19(28-21(18)22)11-4-6-15-17(8-11)27-10-26-15/h3-8H,9-10H2,1-2H3

>  <standard_inchi_key>  (533) 
VUVCSFSNWPLOMK-UHFFFAOYSA-N

>  <name>  (533) 
Ciquitin C

>  <iupac_name>  (533) 
6-(1,3-benzodioxol-5-yl)-3-(3,4-dimethoxyphenyl)-1~{H}-furo[3,4-c]furan-4-one

>  <annotation_level>  (533) 
5

>  <total_atom_count>  (533) 
44

>  <heavy_atom_count>  (533) 
28

>  <molecular_weight>  (533) 
380.35

>  <exact_molecular_weight>  (533) 
380.0896

>  <molecular_formula>  (533) 
C21H16O7

>  <alogp>  (533) 
2.63

>  <topological_polar_surface_area>  (533) 
72.45

>  <rotatable_bond_count>  (533) 
4

>  <hydrogen_bond_acceptors>  (533) 
7

>  <hydrogen_bond_donors>  (533) 
0

>  <hydrogen_bond_acceptors_lipinski>  (533) 
7

>  <hydrogen_bond_donors_lipinski>  (533) 
0

>  <lipinski_rule_of_five_violations>  (533) 
0

>  <aromatic_rings_count>  (533) 
2

>  <qed_drug_likeliness>  (533) 
0.76

>  <formal_charge>  (533) 
0

>  <fractioncsp3>  (533) 
0.19

>  <number_of_minimal_rings>  (533) 
5

>  <van_der_walls_volume>  (533) 
318.94

>  <contains_sugar>  (533) 
False

>  <contains_ring_sugars>  (533) 
False

>  <contains_linear_sugars>  (533) 
False

>  <murcko_framework>  (533) 
O1c2ccc(cc2OC1)C3OCC4C(OCC34)c5ccccc5

>  <np_likeness>  (533) 
0.15

>  <chemical_class>  (533) 
Lignan lactones

>  <chemical_sub_class>  (533) 
Lignan lactones

>  <chemical_super_class>  (533) 
Lignans, neolignans and related compounds

>  <direct_parent_classification>  (533) 
Lignan lactones

>  <np_classifier_pathway>  (533) 
Shikimates and Phenylpropanoids

>  <np_classifier_superclass>  (533) 
nan

>  <np_classifier_class>  (533) 
nan

>  <np_classifier_is_glycoside>  (533) 
False

>  <organisms>  (533) 
Leucophyllum ambiguum

>  <collections>  (533) 
BIOFACQUIM

>  <dois>  (533) 
10.1021/acs.jnatprod.9b00759

>  <synonyms>  (533) 
Ciquitin C

>  <cas>  (533) 
nan

$$$$

     RDKit          2D

 17 17  0  0  0  0  0  0  0  0999 V2000
   -5.2297    1.3755    0.0000 C   0  0  0  0  0  0  0  0  0  0  0  0
   -4.3308    0.1747    0.0000 O   0  0  0  0  0  0  0  0  0  0  0  0
   -2.8414    0.3528    0.0000 C   0  0  0  0  0  0  0  0  0  0  0  0
   -2.2510    1.7317    0.0000 C   0  0  0  0  0  0  0  0  0  0  0  0
   -0.7616    1.9098    0.0000 C   0  0  0  0  0  0  0  0  0  0  0  0
    0.1374    0.7091    0.0000 C   0  0  0  0  0  0  0  0  0  0  0  0
    1.6267    0.8872    0.0000 C   0  0  0  0  0  3  0  0  0  0  0  0
    2.2172    2.2661    0.0000 O   0  0  0  0  0  0  0  0  0  0  0  0
    2.5257   -0.3136    0.0000 C   0  0  0  0  0  3  0  0  0  0  0  0
    1.9353   -1.6925    0.0000 N   0  0  0  0  0  0  0  0  0  0  0  0
    4.0151   -0.1355    0.0000 C   0  0  0  0  0  0  0  0  0  0  0  0
    4.6055    1.2434    0.0000 O   0  0  0  0  0  0  0  0  0  0  0  0
    4.9140   -1.3363    0.0000 O   0  0  0  0  0  0  0  0  0  0  0  0
   -0.4531   -0.6699    0.0000 C   0  0  0  0  0  0  0  0  0  0  0  0
   -1.9425   -0.8480    0.0000 C   0  0  0  0  0  0  0  0  0  0  0  0
   -2.5329   -2.2269    0.0000 O   0  0  0  0  0  0  0  0  0  0  0  0
   -1.6340   -3.4277    0.0000 C   0  0  0  0  0  0  0  0  0  0  0  0
  1  2  1  0
  2  3  1  0
  3  4  2  0
  4  5  1  0
  5  6  2  0
  6  7  1  0
  7  8  1  0
  7  9  1  0
  9 10  1  0
  9 11  1  0
 11 12  2  0
 11 13  1  0
  6 14  1  0
 14 15  2  0
 15 16  1  0
 16 17  1  0
 15  3  1  0
M  RAD  2   7   2   9   2
M  END
>  <identifier>  (534) 
CNP0537650.0

>  <canonical_smiles>  (534) 
COC1=CC=C([C](O)[C](N)C(=O)O)C=C1OC

>  <standard_inchi>  (534) 
InChI=1S/C11H13NO5/c1-16-7-4-3-6(5-8(7)17-2)10(13)9(12)11(14)15/h3-5,13H,12H2,1-2H3,(H,14,15)

>  <standard_inchi_key>  (534) 
OIXFEUGBHLUTHP-UHFFFAOYSA-N

>  <name>  (534) 
(3S)-hydroxy-3' 4'-dimethoxy-L-phenylalanine

>  <iupac_name>  (534) 
2-amino-3-(3,4-dimethoxyphenyl)-3-hydroxy-propanoic acid

>  <annotation_level>  (534) 
5

>  <total_atom_count>  (534) 
30

>  <heavy_atom_count>  (534) 
17

>  <molecular_weight>  (534) 
239.23

>  <exact_molecular_weight>  (534) 
239.07937

>  <molecular_formula>  (534) 
C11H13NO5

>  <alogp>  (534) 
0.53

>  <topological_polar_surface_area>  (534) 
102.01

>  <rotatable_bond_count>  (534) 
5

>  <hydrogen_bond_acceptors>  (534) 
5

>  <hydrogen_bond_donors>  (534) 
3

>  <hydrogen_bond_acceptors_lipinski>  (534) 
5

>  <hydrogen_bond_donors_lipinski>  (534) 
3

>  <lipinski_rule_of_five_violations>  (534) 
0

>  <aromatic_rings_count>  (534) 
1

>  <qed_drug_likeliness>  (534) 
0.69

>  <formal_charge>  (534) 
0

>  <fractioncsp3>  (534) 
0.18

>  <number_of_minimal_rings>  (534) 
1

>  <van_der_walls_volume>  (534) 
212.31

>  <contains_sugar>  (534) 
False

>  <contains_ring_sugars>  (534) 
False

>  <contains_linear_sugars>  (534) 
False

>  <murcko_framework>  (534) 
c1ccccc1

>  <np_likeness>  (534) 
0.01

>  <chemical_class>  (534) 
Phenylpropanoic acids

>  <chemical_sub_class>  (534) 
Phenylpropanoic acids

>  <chemical_super_class>  (534) 
Phenylpropanoids and polyketides

>  <direct_parent_classification>  (534) 
Phenylpropanoic acids

>  <np_classifier_pathway>  (534) 
Alkaloids

>  <np_classifier_superclass>  (534) 
Peptide alkaloids

>  <np_classifier_class>  (534) 
Simple amide alkaloids

>  <np_classifier_is_glycoside>  (534) 
False

>  <organisms>  (534) 
Leucophyllum ambiguum

>  <collections>  (534) 
BIOFACQUIM

>  <dois>  (534) 
10.1021/acs.jnatprod.9b00759

>  <synonyms>  (534) 
(3S)-hydroxy-3' 4'-dimethoxy-L-phenylalanine

>  <cas>  (534) 
nan

$$$$

     RDKit          2D

 26 27  0  0  0  0  0  0  0  0999 V2000
    0.3978   -1.7031    0.0000 O   0  0  0  0  0  0  0  0  0  0  0  0
    0.8089   -0.2605    0.0000 C   0  0  0  0  0  0  0  0  0  0  0  0
    2.2638    0.1047    0.0000 C   0  0  0  0  0  0  0  0  0  0  0  0
    3.3075   -0.9726    0.0000 C   0  0  0  0  0  0  0  0  0  0  0  0
    4.7624   -0.6074    0.0000 C   0  0  0  0  0  0  0  0  0  0  0  0
    5.8061   -1.6847    0.0000 C   0  0  0  0  0  0  0  0  0  0  0  0
    7.2610   -1.3194    0.0000 C   0  0  0  0  0  0  0  0  0  0  0  0
    7.6721    0.1231    0.0000 C   0  0  0  0  0  0  0  0  0  0  0  0
    9.1269    0.4884    0.0000 O   0  0  0  0  0  0  0  0  0  0  0  0
    6.6283    1.2005    0.0000 C   0  0  0  0  0  0  0  0  0  0  0  0
    7.0395    2.6430    0.0000 O   0  0  0  0  0  0  0  0  0  0  0  0
    5.1735    0.8352    0.0000 C   0  0  0  0  0  0  0  0  0  0  0  0
   -0.2348    0.8168    0.0000 O   0  0  0  0  0  0  0  0  0  0  0  0
   -1.6897    0.4515    0.0000 C   0  0  0  0  0  0  0  0  0  0  0  0
   -2.7334    1.5289    0.0000 C   0  0  0  0  0  0  0  0  0  0  0  0
   -4.1882    1.1636    0.0000 C   0  0  0  0  0  0  0  0  0  0  0  0
   -5.2320    2.2409    0.0000 C   0  0  0  0  0  0  0  0  0  0  0  0
   -6.6868    1.8757    0.0000 C   0  0  0  0  0  0  0  0  0  0  0  0
   -7.0979    0.4331    0.0000 C   0  0  0  0  0  0  0  0  0  0  0  0
   -8.5528    0.0679    0.0000 O   0  0  0  0  0  0  0  0  0  0  0  0
   -6.0542   -0.6442    0.0000 C   0  0  0  0  0  0  0  0  0  0  0  0
   -6.4653   -2.0868    0.0000 O   0  0  0  0  0  0  0  0  0  0  0  0
   -4.5994   -0.2790    0.0000 C   0  0  0  0  0  0  0  0  0  0  0  0
   -2.1008   -0.9910    0.0000 C   0  0  0  0  0  0  0  0  0  0  0  0
   -1.0570   -2.0683    0.0000 O   0  0  0  0  0  0  0  0  0  0  0  0
   -3.5556   -1.3563    0.0000 O   0  0  0  0  0  0  0  0  0  0  0  0
  1  2  2  0
  2  3  1  0
  3  4  2  3
  4  5  1  0
  5  6  2  0
  6  7  1  0
  7  8  2  0
  8  9  1  0
  8 10  1  0
 10 11  1  0
 10 12  2  0
  2 13  1  0
 13 14  1  0
 14 15  1  6
 15 16  1  0
 16 17  2  0
 17 18  1  0
 18 19  2  0
 19 20  1  0
 19 21  1  0
 21 22  1  0
 21 23  2  0
 14 24  1  0
 24 25  2  0
 24 26  1  0
 12  5  1  0
 23 16  1  0
M  END
>  <identifier>  (535) 
CNP0243825.1

>  <canonical_smiles>  (535) 
O=C(C=CC1=CC=C(O)C(O)=C1)O[C@@H](CC1=CC=C(O)C(O)=C1)C(=O)O

>  <standard_inchi>  (535) 
InChI=1S/C18H16O8/c19-12-4-1-10(7-14(12)21)3-6-17(23)26-16(18(24)25)9-11-2-5-13(20)15(22)8-11/h1-8,16,19-22H,9H2,(H,24,25)/t16-/m0/s1

>  <standard_inchi_key>  (535) 
DOUMFZQKYFQNTF-INIZCTEOSA-N

>  <name>  (535) 
nan

>  <iupac_name>  (535) 
(2~{S})-3-(3,4-dihydroxyphenyl)-2-[3-(3,4-dihydroxyphenyl)prop-2-enoyloxy]propanoic acid

>  <annotation_level>  (535) 
5

>  <total_atom_count>  (535) 
42

>  <heavy_atom_count>  (535) 
26

>  <molecular_weight>  (535) 
360.32

>  <exact_molecular_weight>  (535) 
360.08452

>  <molecular_formula>  (535) 
C18H16O8

>  <alogp>  (535) 
1.76

>  <topological_polar_surface_area>  (535) 
144.52

>  <rotatable_bond_count>  (535) 
6

>  <hydrogen_bond_acceptors>  (535) 
7

>  <hydrogen_bond_donors>  (535) 
5

>  <hydrogen_bond_acceptors_lipinski>  (535) 
7

>  <hydrogen_bond_donors_lipinski>  (535) 
5

>  <lipinski_rule_of_five_violations>  (535) 
0

>  <aromatic_rings_count>  (535) 
2

>  <qed_drug_likeliness>  (535) 
0.30

>  <formal_charge>  (535) 
0

>  <fractioncsp3>  (535) 
0.11

>  <number_of_minimal_rings>  (535) 
2

>  <van_der_walls_volume>  (535) 
306.17

>  <contains_sugar>  (535) 
False

>  <contains_ring_sugars>  (535) 
False

>  <contains_linear_sugars>  (535) 
False

>  <murcko_framework>  (535) 
O(CC=Cc1ccccc1)CCc2ccccc2

>  <np_likeness>  (535) 
1.13

>  <chemical_class>  (535) 
Cinnamic acids and derivatives

>  <chemical_sub_class>  (535) 
Hydroxycinnamic acids and derivatives

>  <chemical_super_class>  (535) 
Phenylpropanoids and polyketides

>  <direct_parent_classification>  (535) 
Hydroxycinnamic acids

>  <np_classifier_pathway>  (535) 
Shikimates and Phenylpropanoids

>  <np_classifier_superclass>  (535) 
Phenylpropanoids (C6-C3)

>  <np_classifier_class>  (535) 
Cinnamic acids and derivatives

>  <np_classifier_is_glycoside>  (535) 
False

>  <organisms>  (535) 
Centroceras clavulatum|Linaria maroccana|Nanodea muscosa|Passiflora murucuja|Quercus glauca|Rhododendron groenlandicum|Salvia amarissima Ortega|Salvia bicolor|Solanum meridense|Streptomyces alboverticillatus

>  <collections>  (535) 
BIOFACQUIM|NPASS

>  <dois>  (535) 
10.3390/molecules25153530

>  <synonyms>  (535) 
Rosmarinic acid

>  <cas>  (535) 
nan

$$$$

     RDKit          2D

 15 15  0  0  0  0  0  0  0  0999 V2000
    0.1617   -3.9603    0.0000 C   0  0  0  0  0  0  0  0  0  0  0  0
    0.3616   -2.4737    0.0000 C   0  0  0  0  0  0  0  0  0  0  0  0
   -0.9904   -1.8242    0.0000 C   0  0  0  0  0  0  0  0  0  0  0  0
   -0.7905   -0.3376    0.0000 C   0  0  0  0  0  0  0  0  0  0  0  0
   -1.5025    0.9827    0.0000 C   0  0  0  0  0  0  0  0  0  0  0  0
   -2.9781    0.7135    0.0000 C   0  0  0  0  0  0  0  0  0  0  0  0
   -3.9491    1.8568    0.0000 C   0  0  0  0  0  0  0  0  0  0  0  0
   -3.4828   -0.6991    0.0000 C   0  0  0  0  0  0  0  0  0  0  0  0
   -0.4669    2.0678    0.0000 C   0  0  0  0  0  0  0  0  0  0  0  0
    1.0088    2.3370    0.0000 C   0  0  0  0  0  0  0  0  0  0  0  0
    2.3608    1.6875    0.0000 C   0  0  0  0  0  0  0  0  0  0  0  0
    3.3964    2.7726    0.0000 C   0  0  0  0  0  0  0  0  0  0  0  0
    2.1608    0.2009    0.0000 C   0  0  0  0  0  0  0  0  0  0  0  0
    2.8729   -1.1194    0.0000 C   0  0  0  0  0  0  0  0  0  0  0  0
    1.8373   -2.2045    0.0000 C   0  0  0  0  0  0  0  0  0  0  0  0
  1  2  2  0
  2  3  1  0
  3  4  2  0
  4  5  1  0
  5  6  1  6
  6  7  1  0
  6  8  1  0
  5  9  1  0
  9 10  1  0
 10 11  1  0
 11 12  1  0
 11 13  2  0
 13 14  1  0
 14 15  1  0
 15  2  1  0
M  END
>  <identifier>  (536) 
CNP0224506.1

>  <canonical_smiles>  (536) 
C=C1/C=C/[C@H](C(C)C)CC/C(C)=C/CC1

>  <standard_inchi>  (536) 
InChI=1S/C15H24/c1-12(2)15-10-8-13(3)6-5-7-14(4)9-11-15/h7-8,10,12,15H,3,5-6,9,11H2,1-2,4H3/b10-8+,14-7+/t15-/m0/s1

>  <standard_inchi_key>  (536) 
GAIBLDCXCZKKJE-RXJOXMPGSA-N

>  <name>  (536) 
(-)-Germacrene D

>  <iupac_name>  (536) 
(1~{E},6~{E},8~{S})-8-isopropyl-1-methyl-5-methylene-cyclodeca-1,6-diene

>  <annotation_level>  (536) 
5

>  <total_atom_count>  (536) 
39

>  <heavy_atom_count>  (536) 
15

>  <molecular_weight>  (536) 
204.36

>  <exact_molecular_weight>  (536) 
204.1878

>  <molecular_formula>  (536) 
C15H24

>  <alogp>  (536) 
4.89

>  <topological_polar_surface_area>  (536) 
0.00

>  <rotatable_bond_count>  (536) 
1

>  <hydrogen_bond_acceptors>  (536) 
0

>  <hydrogen_bond_donors>  (536) 
0

>  <hydrogen_bond_acceptors_lipinski>  (536) 
0

>  <hydrogen_bond_donors_lipinski>  (536) 
0

>  <lipinski_rule_of_five_violations>  (536) 
0

>  <aromatic_rings_count>  (536) 
0

>  <qed_drug_likeliness>  (536) 
0.53

>  <formal_charge>  (536) 
0

>  <fractioncsp3>  (536) 
0.60

>  <number_of_minimal_rings>  (536) 
1

>  <van_der_walls_volume>  (536) 
230.98

>  <contains_sugar>  (536) 
False

>  <contains_ring_sugars>  (536) 
False

>  <contains_linear_sugars>  (536) 
False

>  <murcko_framework>  (536) 
C1=CCCCC=CCCC1

>  <np_likeness>  (536) 
3.27

>  <chemical_class>  (536) 
Prenol lipids

>  <chemical_sub_class>  (536) 
Sesquiterpenoids

>  <chemical_super_class>  (536) 
Lipids and lipid-like molecules

>  <direct_parent_classification>  (536) 
Germacrane sesquiterpenoids

>  <np_classifier_pathway>  (536) 
Terpenoids

>  <np_classifier_superclass>  (536) 
Sesquiterpenoids

>  <np_classifier_class>  (536) 
Germacrane sesquiterpenoids

>  <np_classifier_is_glycoside>  (536) 
False

>  <organisms>  (536) 
Acacia catechuoides|Acer caesium|Aconitum coreanum|Aconitum likiangense|Acorus calamus|Acorus gramineus|Acorus tatarinowii|Acritopappus confertus|Actinoplanes missouriensis|Actinopyga mauritiana|Adenocarpus foliolosus|Aframomum melegueta|Agastache rugosa|Agathosma betulina|Aglaia lawii|Agrimonia pilosa|Alicyclobacillus acidocaldarius|Alisma orientale|Aloe ferox|Alstonia mairei|Amaioua guianensis|Amomum longiligulare|Amomum villosum|Amomum xanthioides|Andryala ragusina|Angiopteris evecta|Annona diversifolia|Annona spinescens|Antennaria canadensis|Anthelia glauca|Anthemis aciphylla BOISS.var.discoidea BOISS|Anthoxanthum nitens|Antiaris toxicaria|Antidorcas marsupialis|Antillogorgia elisabethae|Aplophyllum acutifolium|Aplysilla pallida|Arnica chamissonis|Arnica sachalinensis|Artemisia annua|Artemisia annua L.|Artemisia apiacea|Artemisia argyi|Artemisia capillaris|Artemisia montana|Artemisia princeps|Asclepias eriocarpa|Aspergillus versicolor|Aster altaicus|Asterolasia squamuligera|Atractylodes chinensis|Atractylodes lancea|Baccharis santelicis|Bacillus subtilis|Bazzania tridens|Berchemia floribunda|Betula exilis|Betula maximowicziana|Biscogniauxia mediterranea|Bistorta manshuriensis|Bistorta officinalis|Bleasdalea bleasdalei|Boronia bipinnata|Brickellia veronicaefolia|Bugula neritina|Byrsonima microphylla|Calanthe arisanensis|Calea hispida|Capillipedium parviflorum|Capsicum annuum|Carpolobia glabrescens|Carthamus tinctorius|Cassia roxburghii|Cassipourea guianensis|Catha cassinoides|Catharanthus roseus|Cedrus libani|Centaurea armena|Centaurea sessilis|Cereus dumortieri|Chaenorhinum villosum|Channa argus|Chlorella vulgaris|Choisya arizonica|Chromolaena arnottiana|Chrysanthemum indicum|Chrysanthemum x morifolium|Chrysanthemum zawadskii|Chrysosplenium oppositifolium|Cinnamomum tenuifolium|Cirsium microspicatum|Cistus creticus|Citrus aurantium|Citrus junos|Citrus maxima|Citrus medica|Citrus natsudaidai|Citrus reticulata|Citrus sinensis|Citrus trifoliata|Citrus unshiu|Clethra macrophylla|Clitoria macrophylla|Cnidium monieri|Cnidium monnieri|Cnidium officinale|Conocliniopsis prasiifolia|Conospermum incurvum|Conyza pyrifolia|Conyza schimperi|Crotalaria madurensis|Croton cortesianus|Croton sarcopetalus|Curcuma aeruginosa|Curcuma amanda Roxb|Curcuma kwangsiensis|Curcuma longa|Curcuma phaeocaulis|Curcuma wenyujin|Curcuma zedoaria|Cutaneotrichosporon cutaneum|Cyperus haspan|Cystophora moniliformis|Dacryodes normandii|Daucus carota|Davilanthus hypargyreus|Dictyota dichotoma (Huds.)|Dracaena deisteliana|Duboisia myoporoides|Echinus auritus|Elsholtzia ciliata|Elysia halimedae|Epimedium sagittatum|Epinephelus drummondhayi|Erigeron sumatrensis|Eriogonum nudum|Erythrina sandwicensis|Eucalyptus agglomerata|Euodia merrillii|Euphorbia balsamifera|Euphorbia sessiliflora|Ficus mucuso|Foeniculum vulgare|Folium callicarpae nudiflorae|Fusarium culmorum|Gentiana asclepiadea|Gentiana formosana|Glehnia littoralis|Gnidia subcordata|Goniothalamus thwaitesii|Grazielia serrata|Grindelia camporum|Grindelia paludosa|Guarea macrophylla ssp.tuberculata|Guatteria leiophylla|Guatteriopsis blepharophylla|Gutierrezia gilliesii|Haminoea fusari|Hansenia forbesii|Hansenia weberbaueriana|Hartwrightia floridana|Helvella esculenta|Hepialus hecta|Heracleum maximum|Humulus lupulus|Hyacinthoides hispanica|Hygrophila polysperma|Hypericum perforatum|Hyssopus officinalis|Ichthyothere terminalis|Illicium difengpi|Incarvillea emodi|Ipomoea reptans|Iris potaninii|Jaspis stellifera|Jurinea suffruticosa|Leonurus heterophyllus|Lepidium virginicum|Ligusticum jeholense|Ligusticum sinense|Ligusticum tenuissimum|Lilium elegans|Lindera aggregata|Lindera strichnifolia|Linum capitatum|Linzia glabra|Litsea cubeba|Litsea laurifolia|Lobularia elongata|Locusta migratoria|Lomatia silaifolia|Lonicera japonica|Lophozia ventricosa|Lupinus caudatus|Macaranga indica|Magnolia obovata|Magnolia officinalis|Magnolia stellata|Malus toringoides|Mcneillia graminifolia|Melampyrum arvense|Melissa officinalis|Mentha aquatica|Mentha arvensis L.|Mentha spicata|Metopium brownei|Microglossa pyrrhopappa|Micromonospora rosaria|Mikania laevigata|Moringa aptera|Moringa oleifera|Mosla chinensis|Mucuna sloanei|Mulguraea tridens|Murraya exotica|Murraya paniculata|Mycale laxissima|Myelochroa rhytidodes|Naucleopsis stipularis|Neodilsea yendoana|Neodiprion sertifer|Neofusicoccum australe|Nervilia fordii|Nicotiana alata|Nidorella auriculata|Notholaena peninsularis|Ochrocarpos odoratus|Ocimum basilicum|Ocotea holdrigeana|Ocotea meziana|Ocotea sinuata|Ocotea valeriana|Oligonychus bessardi|Ophiorrhiza acuminata|Ophryosporus floribundus|Oreoherzogia fallax|Origanum vulgare|Ostericum grosseserratum|Panax ginseng|Panax quinquefolius|Parmelia leucotyliza|Parmelia xanthosorediata|Parthenium integrifolium|Pecten jacobaeus|Perilla frutescens|Perilla ocimoides|Petalonia fascia|Petersianthus macrocarpus|Petriella guttulata|Petroselinum crispum|Peucedanum paniculatum L.|Phaseolus atropurpureus|Phialocephala fortinii|Pholiota nameko|Phoma violacea|Phyllanthus fraternus|Phyllobates aurotaenia|Pinus sitchensis|Pinus sylvestris var. hamata|Piper arboreum|Piper clusii|Piper cubeba|Piper nigrum|Piper obliquum|Piper taboganum|Pistacia lentiscus|Pittosporum viridiflorum|Plagius flosculosus|Plenodomus tracheiphilus|Plexaurella grisea|Plocama calabrica|Pluchea dioscoridis|Polygala reinii|Polygonatum falcatum|Polygonatum glaberrimum|Polygonum minus|Polymnia canadensis|Polysiphonia morrowii|Premna schimperi|Pseudocedrela kotschyi|Pseudodistoma megalarva|Pseudotaxus chienii|Pseudotsuga japonica|Pseudotsuga japonicum|Psychotria rubra|Pulsatilla cernua var. koreana|Punctelia microsticta|Pyrola rotundifolia|Pyrrosia davidii|Quercus spicata|Retama duriaei|Rhaponticum carthamoides|Rheedia benthamiana|Riccia fluitans|Roldana barba-johannis|Rothmannia urcelliformis|Rubia schumanniana|Rubus pinfaensis|Sabal causiarum|Salvia amarissima Ortega|Salvinia imbricata|Santolina rosmarinifolia|Sarcococca coriacea|Satureja montana|Schefferomitra subaequalis|Schisandra chinensis|Schistostephium crataegifolium|Schizonepeta tenuifolia|Schizonepeta tenuisfolia|Senecio coahuilensis|Senecio digitalifolius|Senecio othonniformis|Senecio oxyriifolius|Senecio portalesianus|Serratula wolfi|Serratula xeranthemoides|Sida hermaphrodita|Sinularia erecta|Sinularia manaarensis|Sogatella furcifera|Solanum lycopersicum|Solidago canadensis|Solidago leavenworthii|Spermacoce stricta|Sphaeria biglobosa|Sphaeria doliolum|Spiraea thunbergii|Spongia zimocca|Stemodia viscosa|Stephania micrantha|Stevia alpina|Stevia polyphylla|Stevia samaipatensis|Stevia sarensis|Stevia yaconensis|Stichopus multifidus|Stoeba extensa|Streptomyces flavofungini|Streptomyces rugosporus|Streptomyces violaceochromogenes|Strophanthus eminii|Strychnos tomentosa|Swertia decora|Syncephalastrum racemosum|Talaromyces purpureogenus|Talinum paniculatum|Tanacetum sibiricum|Taonia atomaria|Taraxacum udum|Thaumetopoea pityocampa|Theonella cupola|Thymus X-porlock|Thymus eriocalyx|Thymus quinquecostatus|Thymus vulgaris|Toona ciliata|Torilis japonica|Trichogonia grazielae|Trichogonia salviaefolia|Trichogonia villosa|Tricholoma scalpturatum|Trichothecium sympodiale|Trifolium medium|Tritomaria quinquedentata|Tubifera ferruginosa|Ursinia nudicaulis|Venidium hirsutum|Veratrum eschscholtzii|Veratrum fimbriatum|Verbesina glabrata|Veronica alpina|Viburnum japonicum|Vicoa vestita|Vidalia volubilis|Vitex lucens|Vitis heyneana|Webera corymbosa|Zanthoxylum bungeanum|Zanthoxylum piperitum|Zanthoxylum schinifolium|Zingiber cassumunar Roxb.|Zingiber officinale|Zingiber officinale ROSC.

>  <collections>  (536) 
ANPDB|BIOFACQUIM|CMAUP (cCollective molecular activities of useful plants)|FooDB|KNApSaCK|Latin America dataset|NANPDB (Natural Products from Northern African Sources)|NPASS|NuBBEDB|Super Natural II|TCMDB-Taiwan (Traditional Chinese Medicine database)|TIPdb (database of Taiwan indigenous plants)|VietHerb

>  <dois>  (536) 
10.1016/s0960-894x(99)00536-3|10.1021/np060180b|10.1590/S0103-50532000000600012|10.3390/molecules25153530

>  <synonyms>  (536) 
Germacrene D|23986-74-5|V2I9ATG34E|(1E|6E|8S)-1-methyl-5-methylidene-8-propan-2-ylcyclodeca-1|6-diene|(1E|5E)-germacra-1(10)|4(15)|5-triene|(1E|6E|8S)-8-isopropyl-1-methyl-5-methylenecyclodeca-1|6-diene|1(10)|4(14)|5-Germacratriene|(1E|6E|8S)-1-methyl-8-(1-methylethyl)-5-methylidenecyclodeca-1|6-diene|1-Methyl-5-methylene-8-(1-methylethyl)-1|6-cyclodecadiene|UNII-V2I9ATG34E|CHEBI:49044|DTXSID101019972|(-)-(S)-germacrene D|DTXCID40909740|GAIBLDCXCZKKJE-QRYCCKSOSA-N|AKOS040733249|MS-23113|HY-125685|CS-0093013|Germacrene D (~90%) (Stabilized with Hydroquinone)|Q27121450|(-)-Germacrene D|germacrene

>  <cas>  (536) 
23986-74-5

$$$$

     RDKit          2D

 16 17  0  0  0  0  0  0  0  0999 V2000
   -3.7492    2.7082    0.0000 C   0  0  0  0  0  0  0  0  0  0  0  0
   -3.5574    1.2205    0.0000 C   0  0  0  0  0  0  0  0  0  0  0  0
   -2.1730    0.6429    0.0000 C   0  0  0  0  0  0  0  0  0  0  0  0
   -0.9806    1.5529    0.0000 C   0  0  0  0  0  0  0  0  0  0  0  0
    0.4037    0.9752    0.0000 C   0  0  0  0  0  0  0  0  0  0  0  0
    0.5956   -0.5125    0.0000 C   0  0  0  0  0  0  0  0  0  0  0  0
   -0.5968   -1.4225    0.0000 C   0  0  0  0  0  0  0  0  0  0  0  0
   -1.9812   -0.8448    0.0000 C   0  0  0  0  0  0  0  0  0  0  0  0
   -3.1736   -1.7548    0.0000 O   0  0  0  0  0  0  0  0  0  0  0  0
   -2.9817   -3.2425    0.0000 C   0  0  0  0  0  0  0  0  0  0  0  0
    1.9799   -1.0901    0.0000 O   0  0  0  0  0  0  0  0  0  0  0  0
    3.1723   -0.1801    0.0000 C   0  0  0  0  0  0  0  0  0  0  0  0
    4.6041    0.2672    0.0000 C   0  0  0  0  0  0  0  0  0  0  0  0
    3.8614   -1.5124    0.0000 C   0  0  0  0  0  0  0  0  0  0  0  0
    2.9804    1.3076    0.0000 C   0  0  0  0  0  0  0  0  0  0  0  0
    1.5961    1.8852    0.0000 C   0  0  0  0  0  0  0  0  0  0  0  0
  1  2  2  0
  2  3  1  0
  3  4  2  0
  4  5  1  0
  5  6  2  0
  6  7  1  0
  7  8  2  0
  8  9  1  0
  9 10  1  0
  6 11  1  0
 11 12  1  0
 12 13  1  0
 12 14  1  0
 12 15  1  0
 15 16  2  0
  8  3  1  0
 16  5  1  0
M  END
>  <identifier>  (537) 
CNP0156799.0

>  <canonical_smiles>  (537) 
C=CC1=CC2=C(C=C1OC)OC(C)(C)C=C2

>  <standard_inchi>  (537) 
InChI=1S/C14H16O2/c1-5-10-8-11-6-7-14(2,3)16-13(11)9-12(10)15-4/h5-9H,1H2,2-4H3

>  <standard_inchi_key>  (537) 
RRUFTPKJXNXMAE-UHFFFAOYSA-N

>  <name>  (537) 
62458-61-1

>  <iupac_name>  (537) 
7-methoxy-2,2-dimethyl-6-vinyl-chromene

>  <annotation_level>  (537) 
5

>  <total_atom_count>  (537) 
32

>  <heavy_atom_count>  (537) 
16

>  <molecular_weight>  (537) 
216.28

>  <exact_molecular_weight>  (537) 
216.11503

>  <molecular_formula>  (537) 
C14H16O2

>  <alogp>  (537) 
3.52

>  <topological_polar_surface_area>  (537) 
18.46

>  <rotatable_bond_count>  (537) 
2

>  <hydrogen_bond_acceptors>  (537) 
2

>  <hydrogen_bond_donors>  (537) 
0

>  <hydrogen_bond_acceptors_lipinski>  (537) 
2

>  <hydrogen_bond_donors_lipinski>  (537) 
0

>  <lipinski_rule_of_five_violations>  (537) 
0

>  <aromatic_rings_count>  (537) 
1

>  <qed_drug_likeliness>  (537) 
0.75

>  <formal_charge>  (537) 
0

>  <fractioncsp3>  (537) 
0.29

>  <number_of_minimal_rings>  (537) 
2

>  <van_der_walls_volume>  (537) 
209.61

>  <contains_sugar>  (537) 
False

>  <contains_ring_sugars>  (537) 
False

>  <contains_linear_sugars>  (537) 
False

>  <murcko_framework>  (537) 
O1c2ccccc2C=CC1

>  <np_likeness>  (537) 
2.12

>  <chemical_class>  (537) 
Benzopyrans

>  <chemical_sub_class>  (537) 
1-benzopyrans

>  <chemical_super_class>  (537) 
Organoheterocyclic compounds

>  <direct_parent_classification>  (537) 
2,2-dimethyl-1-benzopyrans

>  <np_classifier_pathway>  (537) 
Terpenoids

>  <np_classifier_superclass>  (537) 
Meroterpenoids

>  <np_classifier_class>  (537) 
Merohemiterpenoids

>  <np_classifier_is_glycoside>  (537) 
False

>  <organisms>  (537) 
Ageratina grandifolia|Ageratum conyzoides|Delphinium elisabethae|Heterotheca subaxillaris|Myroxylon pereirae|Senna surattensis|Strychnos panganensis

>  <collections>  (537) 
Australian natural products|BIOFACQUIM|CMAUP (cCollective molecular activities of useful plants)|NPASS|Super Natural II|UNPD (Universal Natural Products Database)

>  <dois>  (537) 
10.1016/s0031-9422(00)95190-2|10.1021/acs.jnatprod.1c00105|10.1080/10412905.2005.9698888|10.1590/s1516-05722011000100004

>  <synonyms>  (537) 
6-Vinyl-7-methoxy-2|2-dimethylchromene|6-ethenyl-7-methoxy-2|2-dimethyl-2h-chromene|7-Methoxy-2|2-dimethyl-6-vinyl-2H-chromene|Audroenececalinol|Anhydroencecalinol|SCHEMBL15477922|DTXSID10978024|RRUFTPKJXNXMAE-UHFFFAOYSA-N|Chromene| 6-ethenyl-7-methoxy| 2|2-dimethyl|6-Ethenyl-7-methoxy-2|2-dimethyl-2H-1-benzopyran

>  <cas>  (537) 
nan

$$$$

     RDKit          2D

 23 24  0  0  0  0  0  0  0  0999 V2000
   -3.8133   -4.4961    0.0000 C   0  0  0  0  0  0  0  0  0  0  0  0
   -2.9704   -3.2554    0.0000 C   0  0  0  0  0  0  0  0  0  0  0  0
   -3.6235   -1.9050    0.0000 C   0  0  0  0  0  0  0  0  0  0  0  0
   -5.1195   -1.7954    0.0000 C   0  0  0  0  0  0  0  0  0  0  0  0
   -2.7805   -0.6642    0.0000 C   0  0  0  0  0  0  0  0  0  0  0  0
   -3.4336    0.6861    0.0000 O   0  0  0  0  0  0  0  0  0  0  0  0
   -1.2846   -0.7739    0.0000 O   0  0  0  0  0  0  0  0  0  0  0  0
   -0.4416    0.4669    0.0000 C   0  0  0  0  0  3  0  0  0  0  0  0
   -1.0947    1.8173    0.0000 C   0  0  0  0  0  3  0  0  0  0  0  0
   -2.3355    2.6602    0.0000 O   0  0  0  0  0  0  0  0  0  0  0  0
   -0.9851    3.3133    0.0000 C   0  0  0  0  0  0  0  0  0  0  0  0
   -1.3937    4.7565    0.0000 C   0  0  0  0  0  0  0  0  0  0  0  0
    0.5072    3.4651    0.0000 C   0  0  0  0  0  0  0  0  0  0  0  0
    1.0544    0.3573    0.0000 C   0  0  0  0  0  0  0  0  0  0  0  0
    1.7074   -0.9931    0.0000 C   0  0  0  0  0  0  0  0  0  0  0  0
    3.2034   -1.1027    0.0000 C   0  0  0  0  0  0  0  0  0  0  0  0
    3.8565   -2.4531    0.0000 C   0  0  0  0  0  0  0  0  0  0  0  0
    3.0135   -3.6938    0.0000 C   0  0  0  0  0  0  0  0  0  0  0  0
    5.3525   -2.5627    0.0000 O   0  0  0  0  0  0  0  0  0  0  0  0
    4.0463    0.1380    0.0000 C   0  0  0  0  0  0  0  0  0  0  0  0
    3.3933    1.4884    0.0000 C   0  0  0  0  0  0  0  0  0  0  0  0
    1.8973    1.5980    0.0000 C   0  0  0  0  0  0  0  0  0  0  0  0
    1.2442    2.9484    0.0000 O   0  0  0  0  0  0  0  0  0  0  0  0
  1  2  1  0
  2  3  2  3
  3  4  1  0
  3  5  1  0
  5  6  2  0
  5  7  1  0
  7  8  1  0
  8  9  1  0
  9 10  1  0
 10 11  1  0
 11 12  1  0
 11 13  1  0
  8 14  1  0
 14 15  2  0
 15 16  1  0
 16 17  1  0
 17 18  1  0
 17 19  2  0
 16 20  2  0
 20 21  1  0
 21 22  2  0
 22 23  1  0
 11  9  1  0
 22 14  1  0
M  RAD  2   8   2   9   2
M  END
>  <identifier>  (538) 
CNP0496682.0

>  <canonical_smiles>  (538) 
CC=C(C)C(=O)O[C]([C]1OC1(C)C)C1=CC(C(C)=O)=CC=C1O

>  <standard_inchi>  (538) 
InChI=1S/C18H20O5/c1-6-10(2)17(21)22-15(16-18(4,5)23-16)13-9-12(11(3)19)7-8-14(13)20/h6-9,20H,1-5H3

>  <standard_inchi_key>  (538) 
HCKZEPZWVOAVPW-UHFFFAOYSA-N

>  <name>  (538) 
(S)-(5-acetyl-2-hydroxyphenyl)((R)-3 3-dimethyloxiran-2-yl)methyl (Z)-2-methylbut-2-enoate

>  <iupac_name>  (538) 
nan

>  <annotation_level>  (538) 
5

>  <total_atom_count>  (538) 
43

>  <heavy_atom_count>  (538) 
23

>  <molecular_weight>  (538) 
316.35

>  <exact_molecular_weight>  (538) 
316.13107

>  <molecular_formula>  (538) 
C18H20O5

>  <alogp>  (538) 
3.33

>  <topological_polar_surface_area>  (538) 
76.13

>  <rotatable_bond_count>  (538) 
5

>  <hydrogen_bond_acceptors>  (538) 
5

>  <hydrogen_bond_donors>  (538) 
1

>  <hydrogen_bond_acceptors_lipinski>  (538) 
5

>  <hydrogen_bond_donors_lipinski>  (538) 
1

>  <lipinski_rule_of_five_violations>  (538) 
0

>  <aromatic_rings_count>  (538) 
1

>  <qed_drug_likeliness>  (538) 
0.39

>  <formal_charge>  (538) 
0

>  <fractioncsp3>  (538) 
0.33

>  <number_of_minimal_rings>  (538) 
2

>  <van_der_walls_volume>  (538) 
297.28

>  <contains_sugar>  (538) 
False

>  <contains_ring_sugars>  (538) 
False

>  <contains_linear_sugars>  (538) 
False

>  <murcko_framework>  (538) 
O1CC1Cc2ccccc2

>  <np_likeness>  (538) 
0.92

>  <chemical_class>  (538) 
Organooxygen compounds

>  <chemical_sub_class>  (538) 
Carbonyl compounds

>  <chemical_super_class>  (538) 
Organic oxygen compounds

>  <direct_parent_classification>  (538) 
Alkyl-phenylketones

>  <np_classifier_pathway>  (538) 
nan

>  <np_classifier_superclass>  (538) 
nan

>  <np_classifier_class>  (538) 
nan

>  <np_classifier_is_glycoside>  (538) 
False

>  <organisms>  (538) 
Ageratina grandifolia

>  <collections>  (538) 
BIOFACQUIM

>  <dois>  (538) 
10.1021/acs.jnatprod.1c00105

>  <synonyms>  (538) 
(S)-(5-acetyl-2-hydroxyphenyl)((R)-3 3-dimethyloxiran-2-yl)methyl (Z)-2-methylbut-2-enoate

>  <cas>  (538) 
nan

$$$$

     RDKit          2D

 37 41  0  0  0  0  0  0  0  0999 V2000
    2.2287   -3.9666    0.0000 C   0  0  0  0  0  0  0  0  0  0  0  0
    0.7682   -3.6249    0.0000 C   0  0  0  0  0  3  0  0  0  0  0  0
   -0.2580   -4.7190    0.0000 C   0  0  0  0  0  0  0  0  0  0  0  0
   -1.7186   -4.3774    0.0000 C   0  0  0  0  0  0  0  0  0  0  0  0
   -2.1530   -2.9417    0.0000 C   0  0  0  0  0  0  0  0  0  0  0  0
   -2.4256   -2.4605    0.0000 C   0  0  0  0  0  0  0  0  0  0  0  0
   -2.9307   -2.9737    0.0000 O   0  0  0  0  0  0  0  0  0  0  0  0
   -3.1559   -2.2896    0.0000 C   0  0  0  0  0  0  0  0  0  0  0  0
   -5.8845   -4.0100    0.0000 O   0  0  0  0  0  0  0  0  0  0  0  0
   -3.6136   -2.6001    0.0000 C   0  0  0  0  0  0  0  0  0  0  0  0
   -4.0480   -1.1643    0.0000 C   0  0  0  0  0  0  0  0  0  0  0  0
   -3.0219   -0.0703    0.0000 C   0  0  0  0  0  3  0  0  0  0  0  0
   -3.4563    1.3655    0.0000 O   0  0  0  0  0  0  0  0  0  0  0  0
   -2.4301    2.4595    0.0000 C   0  0  0  0  0  3  0  0  0  0  0  0
   -0.9696    2.1179    0.0000 O   0  0  0  0  0  0  0  0  0  0  0  0
    0.0566    3.2120    0.0000 C   0  0  0  0  0  3  0  0  0  0  0  0
    1.5172    2.8704    0.0000 C   0  0  0  0  0  0  0  0  0  0  0  0
    2.5433    3.9644    0.0000 O   0  0  0  0  0  0  0  0  0  0  0  0
   -0.3778    4.6477    0.0000 C   0  0  0  0  0  3  0  0  0  0  0  0
    0.6483    5.7418    0.0000 O   0  0  0  0  0  0  0  0  0  0  0  0
   -1.8384    4.9893    0.0000 C   0  0  0  0  0  3  0  0  0  0  0  0
   -2.2728    6.4250    0.0000 O   0  0  0  0  0  0  0  0  0  0  0  0
   -2.8646    3.8953    0.0000 C   0  0  0  0  0  3  0  0  0  0  0  0
   -4.3251    4.2369    0.0000 O   0  0  0  0  0  0  0  0  0  0  0  0
   -1.5613   -0.4119    0.0000 C   0  0  0  0  0  0  0  0  0  0  0  0
   -1.1269   -1.8476    0.0000 C   0  0  0  0  0  3  0  0  0  0  0  0
    0.3337   -2.1892    0.0000 C   0  0  0  0  0  0  0  0  0  0  0  0
    0.4165   -0.6915    0.0000 C   0  0  0  0  0  0  0  0  0  0  0  0
    1.8231   -2.0107    0.0000 C   0  0  0  0  0  0  0  0  0  0  0  0
    2.4131   -0.6317    0.0000 C   0  0  0  0  0  0  0  0  0  0  0  0
    3.9025   -0.4531    0.0000 C   0  0  0  0  0  0  0  0  0  0  0  0
    4.6335    0.8567    0.0000 C   0  0  0  0  0  0  0  0  0  0  0  0
    6.1051    0.5662    0.0000 C   0  0  0  0  0  0  0  0  0  0  0  0
    7.2050    1.5861    0.0000 O   0  0  0  0  0  0  0  0  0  0  0  0
    6.2836   -0.9231    0.0000 O   0  0  0  0  0  0  0  0  0  0  0  0
    4.9223   -1.5531    0.0000 C   0  0  0  0  0  0  0  0  0  0  0  0
    4.6319   -3.0247    0.0000 O   0  0  0  0  0  0  0  0  0  0  0  0
  1  2  1  0
  2  3  1  0
  3  4  1  0
  5  4  1  6
  5  6  1  0
  6  7  1  0
  7  8  1  0
  8  9  2  0
  8 10  1  0
 10 11  2  0
 11 12  1  0
 12 13  1  0
 13 14  1  0
 14 15  1  0
 15 16  1  0
 16 17  1  0
 17 18  1  0
 16 19  1  0
 19 20  1  0
 19 21  1  0
 21 22  1  0
 21 23  1  0
 23 24  1  0
 12 25  1  0
 25 26  1  0
 26 27  1  0
 27 28  1  6
 27 29  1  0
 29 30  1  0
 30 31  1  0
 31 32  2  0
 32 33  1  0
 33 34  2  0
 33 35  1  0
 35 36  1  0
 36 37  1  0
 27  2  1  0
 36 31  1  0
 10  5  1  0
 23 14  1  0
 26  5  1  0
M  RAD  8   2   2  12   2  14   2  16   2  19   2  21   2  23   2  26   2
M  END
>  <identifier>  (539) 
CNP0508170.1

>  <canonical_smiles>  (539) 
C[C]1CC[C@@]23COC(=O)C2=C[C](O[C]2O[C](CO)[C](O)[C](O)[C]2O)C[C]3[C@@]1(C)CCC1=CC(=O)OC1O

>  <standard_inchi>  (539) 
InChI=1S/C26H28O11/c1-12-3-6-26-11-34-23(33)15(26)8-14(35-24-21(31)20(30)19(29)16(10-27)36-24)9-17(26)25(12,2)5-4-13-7-18(28)37-22(13)32/h7-8,22,27,29-32H,3-6,9-11H2,1-2H3/t22?,25-,26+/m0/s1

>  <standard_inchi_key>  (539) 
KWUGROPOXKUAGW-QMXUZLBISA-N

>  <name>  (539) 
amarisolide G

>  <iupac_name>  (539) 
(7~{S},10~{a}~{S})-7-[2-(2-hydroxy-5-oxo-2~{H}-furan-3-yl)ethyl]-7,8-dimethyl-5-[3,4,5-trihydroxy-6-(hydroxymethyl)pyran-2-yl]oxy-1,6,9,10-tetrahydrobenzo[d]isobenzofuran-3-one

>  <annotation_level>  (539) 
5

>  <total_atom_count>  (539) 
65

>  <heavy_atom_count>  (539) 
37

>  <molecular_weight>  (539) 
516.5

>  <exact_molecular_weight>  (539) 
516.16316

>  <molecular_formula>  (539) 
C26H28O11

>  <alogp>  (539) 
1.72

>  <topological_polar_surface_area>  (539) 
172.21

>  <rotatable_bond_count>  (539) 
6

>  <hydrogen_bond_acceptors>  (539) 
11

>  <hydrogen_bond_donors>  (539) 
5

>  <hydrogen_bond_acceptors_lipinski>  (539) 
11

>  <hydrogen_bond_donors_lipinski>  (539) 
5

>  <lipinski_rule_of_five_violations>  (539) 
2

>  <aromatic_rings_count>  (539) 
0

>  <qed_drug_likeliness>  (539) 
0.33

>  <formal_charge>  (539) 
0

>  <fractioncsp3>  (539) 
0.46

>  <number_of_minimal_rings>  (539) 
5

>  <van_der_walls_volume>  (539) 
441.03

>  <contains_sugar>  (539) 
True

>  <contains_ring_sugars>  (539) 
True

>  <contains_linear_sugars>  (539) 
False

>  <murcko_framework>  (539) 
O1CC=C(C1)CCC2CCCC34C(=CC(OC5OCCCC5)CC23)COC4

>  <np_likeness>  (539) 
1.64

>  <chemical_class>  (539) 
Lactones

>  <chemical_sub_class>  (539) 
Gamma butyrolactones

>  <chemical_super_class>  (539) 
Organoheterocyclic compounds

>  <direct_parent_classification>  (539) 
Gamma butyrolactones

>  <np_classifier_pathway>  (539) 
Terpenoids

>  <np_classifier_superclass>  (539) 
nan

>  <np_classifier_class>  (539) 
nan

>  <np_classifier_is_glycoside>  (539) 
True

>  <organisms>  (539) 
Salvia amarissima Ortega

>  <collections>  (539) 
BIOFACQUIM

>  <dois>  (539) 
10.3390/molecules25153530

>  <synonyms>  (539) 
amarisolide G

>  <cas>  (539) 
nan

$$$$

     RDKit          2D

 17 18  0  0  0  0  0  0  0  0999 V2000
   -2.6571    3.2977    0.0000 C   0  0  0  0  0  0  0  0  0  0  0  0
   -2.8695    1.8128    0.0000 O   0  0  0  0  0  0  0  0  0  0  0  0
   -1.6897    0.8864    0.0000 C   0  0  0  0  0  0  0  0  0  0  0  0
   -0.2976    1.4450    0.0000 C   0  0  0  0  0  0  0  0  0  0  0  0
    0.8822    0.5186    0.0000 C   0  0  0  0  0  0  0  0  0  0  0  0
    0.6698   -0.9663    0.0000 C   0  0  0  0  0  0  0  0  0  0  0  0
    1.8496   -1.8926    0.0000 C   0  0  0  0  0  0  0  0  0  0  0  0
    3.2418   -1.3341    0.0000 C   0  0  0  0  0  0  0  0  0  0  0  0
    3.4541    0.1508    0.0000 C   0  0  0  0  0  0  0  0  0  0  0  0
    4.1615    1.4735    0.0000 C   0  0  0  0  0  0  0  0  0  0  0  0
    4.8796   -0.3162    0.0000 C   0  0  0  0  0  0  0  0  0  0  0  0
    2.2743    1.0772    0.0000 O   0  0  0  0  0  0  0  0  0  0  0  0
   -0.7223   -1.5248    0.0000 C   0  0  0  0  0  0  0  0  0  0  0  0
   -1.9021   -0.5985    0.0000 C   0  0  0  0  0  0  0  0  0  0  0  0
   -3.2942   -1.1570    0.0000 C   0  0  0  0  0  0  0  0  0  0  0  0
   -4.4740   -0.2307    0.0000 C   0  0  0  0  0  0  0  0  0  0  0  0
   -3.5065   -2.6419    0.0000 O   0  0  0  0  0  0  0  0  0  0  0  0
  1  2  1  0
  2  3  1  0
  3  4  2  0
  4  5  1  0
  5  6  2  0
  6  7  1  0
  7  8  2  0
  8  9  1  0
  9 10  1  0
  9 11  1  0
  9 12  1  0
  6 13  1  0
 13 14  2  0
 14 15  1  0
 15 16  1  0
 15 17  2  0
 14  3  1  0
 12  5  1  0
M  END
>  <identifier>  (540) 
CNP0151046.0

>  <canonical_smiles>  (540) 
COC1=CC2=C(C=CC(C)(C)O2)C=C1C(C)=O

>  <standard_inchi>  (540) 
InChI=1S/C14H16O3/c1-9(15)11-7-10-5-6-14(2,3)17-12(10)8-13(11)16-4/h5-8H,1-4H3

>  <standard_inchi_key>  (540) 
WXVLCNREBFDEKS-UHFFFAOYSA-N

>  <name>  (540) 
Encecalin

>  <iupac_name>  (540) 
1-(7-methoxy-2,2-dimethyl-chromen-6-yl)ethanone

>  <annotation_level>  (540) 
5

>  <total_atom_count>  (540) 
33

>  <heavy_atom_count>  (540) 
17

>  <molecular_weight>  (540) 
232.28

>  <exact_molecular_weight>  (540) 
232.10994

>  <molecular_formula>  (540) 
C14H16O3

>  <alogp>  (540) 
3.08

>  <topological_polar_surface_area>  (540) 
35.53

>  <rotatable_bond_count>  (540) 
2

>  <hydrogen_bond_acceptors>  (540) 
3

>  <hydrogen_bond_donors>  (540) 
0

>  <hydrogen_bond_acceptors_lipinski>  (540) 
3

>  <hydrogen_bond_donors_lipinski>  (540) 
0

>  <lipinski_rule_of_five_violations>  (540) 
0

>  <aromatic_rings_count>  (540) 
1

>  <qed_drug_likeliness>  (540) 
0.73

>  <formal_charge>  (540) 
0

>  <fractioncsp3>  (540) 
0.36

>  <number_of_minimal_rings>  (540) 
2

>  <van_der_walls_volume>  (540) 
218.38

>  <contains_sugar>  (540) 
False

>  <contains_ring_sugars>  (540) 
False

>  <contains_linear_sugars>  (540) 
False

>  <murcko_framework>  (540) 
O1c2ccccc2C=CC1

>  <np_likeness>  (540) 
1.79

>  <chemical_class>  (540) 
Benzopyrans

>  <chemical_sub_class>  (540) 
1-benzopyrans

>  <chemical_super_class>  (540) 
Organoheterocyclic compounds

>  <direct_parent_classification>  (540) 
2,2-dimethyl-1-benzopyrans

>  <np_classifier_pathway>  (540) 
Terpenoids

>  <np_classifier_superclass>  (540) 
Meroterpenoids

>  <np_classifier_class>  (540) 
Merohemiterpenoids

>  <np_classifier_is_glycoside>  (540) 
False

>  <organisms>  (540) 
Achillea ochroleuca|Ageratina adenophora|Ageratina grandifolia|Ageratina scorodonoides|Ageratum conyzoides|Aristolochia durior|Brasilia sickii|Bupleurum chinense|Clathria reinwardti|Codonopsis pilosula|Cordyline cannifolia|Cytisus caucasicus|Delphinium elisabethae|Encelia californica|Eupatorium glandulosum|Flourensia riparia|Flourensia riparia Grisebach|Gram-negative bacterium|Graphiopsis chlorocephala|Helianthella quinquenervis|Helianthus hirsutus|Hemizonia congesta|Hemizonia fitchii|Heterotheca subaxillaris|Iris bungei|Lagascea rigida|Lindheimera texana|Menyanthes trifoliata|Myroxylon pereirae|Negombata corticata|Panagrellus redivivus|Panax pseudo - ginseng var. notoginseng|Panax quinquefolium|Panax quinquefolius|Parmelia quercina|Paspalum dilatatum|Plumbago indica|Primulina dryas|Pseudophryne australis|Senecio gallicus|Siparuna macrotepala|Sorghum bicolor|Strychnos panganensis|Thamnophis butleri|Tithonia diversifolia|Vernonia wildii

>  <collections>  (540) 
Australian natural products|BIOFACQUIM|CMAUP (cCollective molecular activities of useful plants)|ChEBI NPs|KNApSaCK|NPACT|NPASS|NPEdia|Phyto4Health|Super Natural II|TCMDB-Taiwan (Traditional Chinese Medicine database)|TCMID (Traditional Chinese Medicine Integrated Database)|UNPD (Universal Natural Products Database)|ZINC NP

>  <dois>  (540) 
10.1016/0031-9422(90)85096-x|10.1016/s0031-9422(00)95190-2|10.1021/acs.jnatprod.1c00105|10.1021/np960199m|10.1248/cpb.47.428

>  <synonyms>  (540) 
20628-09-5|1-(7-methoxy-2|2-dimethylchromen-6-yl)ethanone|Encecalin (methyleupatoriochromene)|CHEBI:4789|Ketone| 7-methoxy-2|2-dimethyl-2H-1-benzopyran-6-yl methyl|1-(7-Methoxy-2|2-dimethyl-2H-1-benzopyran-6-yl)ethanone; Encecalin; NSC 603929|AC1L3FTK|AC1Q5GA2|NSC 603929|6-acetyl-7-methoxy-2|2-dimethylchromene|CHEMBL451983|MEGxp0_001567|SCHEMBL4310132|ACon1_002222|DTXSID90942824|WXVLCNREBFDEKS-UHFFFAOYSA-N|HY-N3805|AKOS032948499|FS-9538|CS-0024253|C09005|Q27106480|1-(7-Methoxy-2|2-dimethyl-2H-1-benzopyran-6-yl)ethanone|Encecalin|encecalin

>  <cas>  (540) 
20628-09-5

$$$$

     RDKit          2D

 15 16  0  0  0  0  0  0  0  0999 V2000
   -4.7679    0.8531    0.0000 C   0  0  0  0  0  0  0  0  0  0  0  0
   -3.7446   -0.2436    0.0000 C   0  0  0  0  0  0  0  0  0  0  0  0
   -4.1827   -1.6782    0.0000 O   0  0  0  0  0  0  0  0  0  0  0  0
   -2.2831    0.0943    0.0000 C   0  0  0  0  0  0  0  0  0  0  0  0
   -1.8450    1.5289    0.0000 C   0  0  0  0  0  0  0  0  0  0  0  0
   -0.3836    1.8668    0.0000 C   0  0  0  0  0  0  0  0  0  0  0  0
    0.6398    0.7701    0.0000 C   0  0  0  0  0  0  0  0  0  0  0  0
    2.1012    1.1080    0.0000 O   0  0  0  0  0  0  0  0  0  0  0  0
    3.1245    0.0113    0.0000 C   0  0  0  0  0  0  0  0  0  0  0  0
    4.4613   -0.6692    0.0000 C   0  0  0  0  0  0  0  0  0  0  0  0
    4.0269    1.2096    0.0000 C   0  0  0  0  0  0  0  0  0  0  0  0
    2.6864   -1.4233    0.0000 C   0  0  0  0  0  0  0  0  0  0  0  0
    1.2250   -1.7612    0.0000 C   0  0  0  0  0  0  0  0  0  0  0  0
    0.2017   -0.6645    0.0000 C   0  0  0  0  0  0  0  0  0  0  0  0
   -1.2598   -1.0024    0.0000 C   0  0  0  0  0  0  0  0  0  0  0  0
  1  2  1  0
  2  3  2  0
  2  4  1  0
  4  5  2  0
  5  6  1  0
  6  7  2  0
  7  8  1  0
  8  9  1  0
  9 10  1  0
  9 11  1  0
  9 12  1  0
 12 13  2  0
 13 14  1  0
 14 15  2  0
 15  4  1  0
 14  7  1  0
M  END
>  <identifier>  (541) 
CNP0290380.0

>  <canonical_smiles>  (541) 
CC(=O)C1=CC=C2OC(C)(C)C=CC2=C1

>  <standard_inchi>  (541) 
InChI=1S/C13H14O2/c1-9(14)10-4-5-12-11(8-10)6-7-13(2,3)15-12/h4-8H,1-3H3

>  <standard_inchi_key>  (541) 
ZAJTXVHECZCXLH-UHFFFAOYSA-N

>  <name>  (541) 
19013-07-1

>  <iupac_name>  (541) 
1-(2,2-dimethylchromen-6-yl)ethanone

>  <annotation_level>  (541) 
5

>  <total_atom_count>  (541) 
29

>  <heavy_atom_count>  (541) 
15

>  <molecular_weight>  (541) 
202.25

>  <exact_molecular_weight>  (541) 
202.09938

>  <molecular_formula>  (541) 
C13H14O2

>  <alogp>  (541) 
3.07

>  <topological_polar_surface_area>  (541) 
26.30

>  <rotatable_bond_count>  (541) 
1

>  <hydrogen_bond_acceptors>  (541) 
2

>  <hydrogen_bond_donors>  (541) 
0

>  <hydrogen_bond_acceptors_lipinski>  (541) 
2

>  <hydrogen_bond_donors_lipinski>  (541) 
0

>  <lipinski_rule_of_five_violations>  (541) 
0

>  <aromatic_rings_count>  (541) 
1

>  <qed_drug_likeliness>  (541) 
0.65

>  <formal_charge>  (541) 
0

>  <fractioncsp3>  (541) 
0.31

>  <number_of_minimal_rings>  (541) 
2

>  <van_der_walls_volume>  (541) 
194.11

>  <contains_sugar>  (541) 
False

>  <contains_ring_sugars>  (541) 
False

>  <contains_linear_sugars>  (541) 
False

>  <murcko_framework>  (541) 
O1c2ccccc2C=CC1

>  <np_likeness>  (541) 
1.63

>  <chemical_class>  (541) 
Benzopyrans

>  <chemical_sub_class>  (541) 
1-benzopyrans

>  <chemical_super_class>  (541) 
Organoheterocyclic compounds

>  <direct_parent_classification>  (541) 
2,2-dimethyl-1-benzopyrans

>  <np_classifier_pathway>  (541) 
Terpenoids

>  <np_classifier_superclass>  (541) 
Meroterpenoids

>  <np_classifier_class>  (541) 
Merohemiterpenoids

>  <np_classifier_is_glycoside>  (541) 
False

>  <organisms>  (541) 
Ageratina adenophora|Ageratina grandifolia|Alicyclobacillus acidocaldarius|Boronia bipinnata|Calea hispida|Cirsium microspicatum|Cytisus caucasicus|Duboisia myoporoides|Gram-negative bacterium|Helianthus annuus|Helianthus hirsutus|Hemizonia congesta|Linum capitatum|Minuria leptophylla|Pecten jacobaeus|Phialocephala fortinii|Pseudodistoma megalarva|Pyrrosia davidii|Sorghum bicolor|Taraxacum udum|Tricholoma scalpturatum|Trifolium medium|Xanthium pungens

>  <collections>  (541) 
ANPDB|Australian natural products|BIOFACQUIM|CMAUP (cCollective molecular activities of useful plants)|FooDB|KNApSaCK|NANPDB (Natural Products from Northern African Sources)|NPASS|Super Natural II|UNPD (Universal Natural Products Database)

>  <dois>  (541) 
10.1016/0031-9422(88)80313-3|10.1016/0031-9422(90)83040-8|10.1016/0031-9422(90)85096-x|10.1021/acs.jnatprod.1c00105

>  <synonyms>  (541) 
Demethoxyencecalin|1-(2|2-dimethylchromen-6-yl)ethanone|6-acetyl-2|2-dimethyl-2H-1-benzopyran|2|2-Dimethyl-6-acetyl-2H-1-benzopyran|Ethanone| 1-(2|2-dimethyl-2H-1-benzopyran-6-yl)-|1-(2|2-DIMETHYL-2H-CHROMEN-6-YL)-ETHANONE|4V2K3C7TNN|6-acetyl-2|2-dimethylchromene|SCHEMBL6648245|CHEMBL4878290|DTXSID30172486|CHEBI:172443|BCP24372|CS-M1541|MFCD06200746|AKOS015900984|CS-13067|HY-77173|PD164854|DB-013699|A4194|NS00026217|1-(2|2-Dimethyl-2H-1-benzopyran-6-yl)ethanone|Q67879834|1-(2 2-dimethyl-2H-chromen-6-yl)ethan-1-one

>  <cas>  (541) 
nan

$$$$

     RDKit          2D

 18 19  0  0  0  0  0  0  0  0999 V2000
   -1.9245    3.7501    0.0000 C   0  0  0  0  0  0  0  0  0  0  0  0
   -2.3237    2.3042    0.0000 O   0  0  0  0  0  0  0  0  0  0  0  0
   -1.2710    1.2356    0.0000 C   0  0  0  0  0  0  0  0  0  0  0  0
    0.1808    1.6129    0.0000 C   0  0  0  0  0  0  0  0  0  0  0  0
    1.2334    0.5443    0.0000 C   0  0  0  0  0  0  0  0  0  0  0  0
    0.8343   -0.9017    0.0000 C   0  0  0  0  0  0  0  0  0  0  0  0
    1.8869   -1.9703    0.0000 C   0  0  0  0  0  0  0  0  0  0  0  0
    3.3387   -1.5930    0.0000 C   0  0  0  0  0  0  0  0  0  0  0  0
    3.7378   -0.1470    0.0000 C   0  0  0  0  0  0  0  0  0  0  0  0
    4.6074    1.0752    0.0000 C   0  0  0  0  0  0  0  0  0  0  0  0
    5.0925   -0.7912    0.0000 C   0  0  0  0  0  0  0  0  0  0  0  0
    2.6852    0.9216    0.0000 O   0  0  0  0  0  0  0  0  0  0  0  0
   -0.6175   -1.2790    0.0000 C   0  0  0  0  0  0  0  0  0  0  0  0
   -1.6701   -0.2104    0.0000 C   0  0  0  0  0  0  0  0  0  0  0  0
   -3.1219   -0.5877    0.0000 C   0  0  0  0  0  0  0  0  0  0  0  0
   -4.1745    0.4809    0.0000 C   0  0  0  0  0  0  0  0  0  0  0  0
   -3.5210   -2.0336    0.0000 O   0  0  0  0  0  0  0  0  0  0  0  0
   -4.9728   -2.4109    0.0000 C   0  0  0  0  0  0  0  0  0  0  0  0
  1  2  1  0
  2  3  1  0
  3  4  2  0
  4  5  1  0
  5  6  2  0
  6  7  1  0
  7  8  2  0
  8  9  1  0
  9 10  1  0
  9 11  1  0
  9 12  1  0
  6 13  1  0
 13 14  2  0
 14 15  1  0
 15 16  1  1
 15 17  1  0
 17 18  1  0
 14  3  1  0
 12  5  1  0
M  END
>  <identifier>  (542) 
CNP0224453.1

>  <canonical_smiles>  (542) 
COC1=CC2=C(C=CC(C)(C)O2)C=C1[C@H](C)OC

>  <standard_inchi>  (542) 
InChI=1S/C15H20O3/c1-10(16-4)12-8-11-6-7-15(2,3)18-13(11)9-14(12)17-5/h6-10H,1-5H3/t10-/m0/s1

>  <standard_inchi_key>  (542) 
KIDINSSIUWCEBX-JTQLQIEISA-N

>  <name>  (542) 
(S)-O-Methylencecalinol

>  <iupac_name>  (542) 
7-methoxy-6-[(1~{S})-1-methoxyethyl]-2,2-dimethyl-chromene

>  <annotation_level>  (542) 
5

>  <total_atom_count>  (542) 
38

>  <heavy_atom_count>  (542) 
18

>  <molecular_weight>  (542) 
248.32

>  <exact_molecular_weight>  (542) 
248.14124

>  <molecular_formula>  (542) 
C15H20O3

>  <alogp>  (542) 
3.59

>  <topological_polar_surface_area>  (542) 
27.69

>  <rotatable_bond_count>  (542) 
3

>  <hydrogen_bond_acceptors>  (542) 
3

>  <hydrogen_bond_donors>  (542) 
0

>  <hydrogen_bond_acceptors_lipinski>  (542) 
3

>  <hydrogen_bond_donors_lipinski>  (542) 
0

>  <lipinski_rule_of_five_violations>  (542) 
0

>  <aromatic_rings_count>  (542) 
1

>  <qed_drug_likeliness>  (542) 
0.82

>  <formal_charge>  (542) 
0

>  <fractioncsp3>  (542) 
0.47

>  <number_of_minimal_rings>  (542) 
2

>  <van_der_walls_volume>  (542) 
241.98

>  <contains_sugar>  (542) 
False

>  <contains_ring_sugars>  (542) 
False

>  <contains_linear_sugars>  (542) 
False

>  <murcko_framework>  (542) 
O1c2ccccc2C=CC1

>  <np_likeness>  (542) 
1.79

>  <chemical_class>  (542) 
Benzopyrans

>  <chemical_sub_class>  (542) 
1-benzopyrans

>  <chemical_super_class>  (542) 
Organoheterocyclic compounds

>  <direct_parent_classification>  (542) 
2,2-dimethyl-1-benzopyrans

>  <np_classifier_pathway>  (542) 
Terpenoids

>  <np_classifier_superclass>  (542) 
Meroterpenoids

>  <np_classifier_class>  (542) 
Merohemiterpenoids

>  <np_classifier_is_glycoside>  (542) 
False

>  <organisms>  (542) 
Ageratina grandifolia

>  <collections>  (542) 
BIOFACQUIM|Latin America dataset

>  <dois>  (542) 
10.1021/acs.jnatprod.1c00105

>  <synonyms>  (542) 
HY-N12411|CS-0904531|7-methoxy-6-(1-methoxyethyl)-2 2-dimethyl-2H-chromene

>  <cas>  (542) 
nan

$$$$

     RDKit          2D

 17 18  0  0  0  0  0  0  0  0999 V2000
   -2.6571    3.2977    0.0000 C   0  0  0  0  0  0  0  0  0  0  0  0
   -2.8695    1.8128    0.0000 O   0  0  0  0  0  0  0  0  0  0  0  0
   -1.6897    0.8864    0.0000 C   0  0  0  0  0  0  0  0  0  0  0  0
   -0.2976    1.4450    0.0000 C   0  0  0  0  0  0  0  0  0  0  0  0
    0.8822    0.5186    0.0000 C   0  0  0  0  0  0  0  0  0  0  0  0
    0.6698   -0.9663    0.0000 C   0  0  0  0  0  0  0  0  0  0  0  0
    1.8496   -1.8926    0.0000 C   0  0  0  0  0  0  0  0  0  0  0  0
    3.2418   -1.3341    0.0000 C   0  0  0  0  0  0  0  0  0  0  0  0
    3.4541    0.1508    0.0000 C   0  0  0  0  0  0  0  0  0  0  0  0
    4.1615    1.4735    0.0000 C   0  0  0  0  0  0  0  0  0  0  0  0
    4.8796   -0.3162    0.0000 C   0  0  0  0  0  0  0  0  0  0  0  0
    2.2743    1.0772    0.0000 O   0  0  0  0  0  0  0  0  0  0  0  0
   -0.7223   -1.5248    0.0000 C   0  0  0  0  0  0  0  0  0  0  0  0
   -1.9021   -0.5985    0.0000 C   0  0  0  0  0  0  0  0  0  0  0  0
   -3.2942   -1.1570    0.0000 C   0  0  0  0  0  0  0  0  0  0  0  0
   -4.4740   -0.2307    0.0000 C   0  0  0  0  0  0  0  0  0  0  0  0
   -3.5065   -2.6419    0.0000 O   0  0  0  0  0  0  0  0  0  0  0  0
  1  2  1  0
  2  3  1  0
  3  4  2  0
  4  5  1  0
  5  6  2  0
  6  7  1  0
  7  8  2  0
  8  9  1  0
  9 10  1  0
  9 11  1  0
  9 12  1  0
  6 13  1  0
 13 14  2  0
 14 15  1  0
 15 16  1  1
 15 17  1  0
 14  3  1  0
 12  5  1  0
M  END
>  <identifier>  (543) 
CNP0226869.1

>  <canonical_smiles>  (543) 
COC1=CC2=C(C=CC(C)(C)O2)C=C1[C@H](C)O

>  <standard_inchi>  (543) 
InChI=1S/C14H18O3/c1-9(15)11-7-10-5-6-14(2,3)17-12(10)8-13(11)16-4/h5-9,15H,1-4H3/t9-/m0/s1

>  <standard_inchi_key>  (543) 
ZMQPULSGBXIVGC-VIFPVBQESA-N

>  <name>  (543) 
nan

>  <iupac_name>  (543) 
(1~{S})-1-(7-methoxy-2,2-dimethyl-chromen-6-yl)ethanol

>  <annotation_level>  (543) 
5

>  <total_atom_count>  (543) 
35

>  <heavy_atom_count>  (543) 
17

>  <molecular_weight>  (543) 
234.29

>  <exact_molecular_weight>  (543) 
234.12559

>  <molecular_formula>  (543) 
C14H18O3

>  <alogp>  (543) 
2.93

>  <topological_polar_surface_area>  (543) 
38.69

>  <rotatable_bond_count>  (543) 
2

>  <hydrogen_bond_acceptors>  (543) 
3

>  <hydrogen_bond_donors>  (543) 
1

>  <hydrogen_bond_acceptors_lipinski>  (543) 
3

>  <hydrogen_bond_donors_lipinski>  (543) 
1

>  <lipinski_rule_of_five_violations>  (543) 
0

>  <aromatic_rings_count>  (543) 
1

>  <qed_drug_likeliness>  (543) 
0.85

>  <formal_charge>  (543) 
0

>  <fractioncsp3>  (543) 
0.43

>  <number_of_minimal_rings>  (543) 
2

>  <van_der_walls_volume>  (543) 
225.83

>  <contains_sugar>  (543) 
False

>  <contains_ring_sugars>  (543) 
False

>  <contains_linear_sugars>  (543) 
False

>  <murcko_framework>  (543) 
O1c2ccccc2C=CC1

>  <np_likeness>  (543) 
2.20

>  <chemical_class>  (543) 
Benzopyrans

>  <chemical_sub_class>  (543) 
1-benzopyrans

>  <chemical_super_class>  (543) 
Organoheterocyclic compounds

>  <direct_parent_classification>  (543) 
2,2-dimethyl-1-benzopyrans

>  <np_classifier_pathway>  (543) 
Terpenoids

>  <np_classifier_superclass>  (543) 
Meroterpenoids

>  <np_classifier_class>  (543) 
Merohemiterpenoids

>  <np_classifier_is_glycoside>  (543) 
False

>  <organisms>  (543) 
Ageratina grandifolia|Hemizonia fitchii

>  <collections>  (543) 
BIOFACQUIM|KNApSaCK|TCMDB-Taiwan (Traditional Chinese Medicine database)|ZINC NP

>  <dois>  (543) 
10.1021/acs.jnatprod.1c00105

>  <synonyms>  (543) 
1-(7-methoxy-2 2-dimethyl-2H-chromen-6-yl)ethan-1-ol|Encecalinol

>  <cas>  (543) 
nan

$$$$

     RDKit          2D

 26 28  0  0  0  0  0  0  0  0999 V2000
    7.2872    2.3798    0.0000 C   0  0  0  0  0  0  0  0  0  0  0  0
    7.0279    0.9024    0.0000 C   0  0  0  0  0  0  0  0  0  0  0  0
    5.6188    0.3883    0.0000 C   0  0  0  0  0  0  0  0  0  0  0  0
    6.1329   -1.0209    0.0000 C   0  0  0  0  0  0  0  0  0  0  0  0
    5.1046    1.7974    0.0000 C   0  0  0  0  0  0  0  0  0  0  0  0
    4.2097   -0.1259    0.0000 C   0  0  0  0  0  0  0  0  0  0  0  0
    3.0598    0.8374    0.0000 C   0  0  0  0  0  0  0  0  0  0  0  0
    1.6507    0.3232    0.0000 C   0  0  0  0  0  0  0  0  0  0  0  0
    0.5009    1.2865    0.0000 C   0  0  0  0  0  0  0  0  0  0  0  0
   -0.9083    0.7723    0.0000 C   0  0  0  0  0  0  0  0  0  0  0  0
   -1.1676   -0.7051    0.0000 C   0  0  0  0  0  0  0  0  0  0  0  0
   -0.0177   -1.6684    0.0000 C   0  0  0  0  0  0  0  0  0  0  0  0
    1.3914   -1.1542    0.0000 C   0  0  0  0  0  0  0  0  0  0  0  0
    2.5412   -2.1175    0.0000 O   0  0  0  0  0  0  0  0  0  0  0  0
    3.9504   -1.6033    0.0000 C   0  0  0  0  0  0  0  0  0  0  0  0
    5.1002   -2.5666    0.0000 O   0  0  0  0  0  0  0  0  0  0  0  0
   -2.6528   -0.9150    0.0000 C   0  0  0  0  0  0  0  0  0  0  0  0
   -3.3114    0.4326    0.0000 C   0  0  0  0  0  0  0  0  0  0  0  0
   -4.7889    0.6919    0.0000 C   0  0  0  0  0  0  0  0  0  0  0  0
   -5.0481   -0.7855    0.0000 C   0  0  0  0  0  0  0  0  0  0  0  0
   -4.5296    2.1693    0.0000 C   0  0  0  0  0  0  0  0  0  0  0  0
   -6.2663    0.9512    0.0000 O   0  0  0  0  0  0  0  0  0  0  0  0
   -7.2295   -0.1986    0.0000 C   0  0  0  0  0  0  0  0  0  0  0  0
   -8.7070    0.0607    0.0000 C   0  0  0  0  0  0  0  0  0  0  0  0
   -6.7154   -1.6077    0.0000 O   0  0  0  0  0  0  0  0  0  0  0  0
   -2.2333    1.4755    0.0000 C   0  0  0  0  0  0  0  0  0  0  0  0
  1  2  2  0
  2  3  1  0
  3  4  1  0
  3  5  1  0
  3  6  1  0
  6  7  2  0
  7  8  1  0
  8  9  2  0
  9 10  1  0
 10 11  2  0
 11 12  1  0
 12 13  2  0
 13 14  1  0
 14 15  1  0
 15 16  2  0
 11 17  1  0
 17 18  1  0
 18 19  1  1
 19 20  1  0
 19 21  1  0
 19 22  1  0
 22 23  1  0
 23 24  1  0
 23 25  2  0
 18 26  1  0
 15  6  1  0
 13  8  1  0
 26 10  1  0
M  END
>  <identifier>  (544) 
CNP0535823.1

>  <canonical_smiles>  (544) 
C=CC(C)(C)C1=CC2=CC3=C(C=C2OC1=O)C[C@@H](C(C)(C)OC(C)=O)C3

>  <standard_inchi>  (544) 
InChI=1S/C22H26O4/c1-7-21(3,4)18-11-16-8-14-9-17(22(5,6)26-13(2)23)10-15(14)12-19(16)25-20(18)24/h7-8,11-12,17H,1,9-10H2,2-6H3/t17-/m0/s1

>  <standard_inchi_key>  (544) 
GRGVAHBXXHQXHI-KRWDZBQOSA-N

>  <name>  (544) 
2-(3-(2-methylbut-3-en-2-yl)-2-oxo-2 6 7 8-tetrahydrocyclopenta[g]chromen-7-yl)propan-2-yl acetate

>  <iupac_name>  (544) 
[1-[(7~{S})-3-(1,1-dimethylallyl)-2-oxo-7,8-dihydro-6~{H}-cyclopenta[g]chromen-7-yl]-1-methyl-ethyl] acetate

>  <annotation_level>  (544) 
5

>  <total_atom_count>  (544) 
52

>  <heavy_atom_count>  (544) 
26

>  <molecular_weight>  (544) 
354.45

>  <exact_molecular_weight>  (544) 
354.18311

>  <molecular_formula>  (544) 
C22H26O4

>  <alogp>  (544) 
4.31

>  <topological_polar_surface_area>  (544) 
56.51

>  <rotatable_bond_count>  (544) 
4

>  <hydrogen_bond_acceptors>  (544) 
4

>  <hydrogen_bond_donors>  (544) 
0

>  <hydrogen_bond_acceptors_lipinski>  (544) 
4

>  <hydrogen_bond_donors_lipinski>  (544) 
0

>  <lipinski_rule_of_five_violations>  (544) 
0

>  <aromatic_rings_count>  (544) 
2

>  <qed_drug_likeliness>  (544) 
0.47

>  <formal_charge>  (544) 
0

>  <fractioncsp3>  (544) 
0.46

>  <number_of_minimal_rings>  (544) 
3

>  <van_der_walls_volume>  (544) 
335.16

>  <contains_sugar>  (544) 
False

>  <contains_ring_sugars>  (544) 
False

>  <contains_linear_sugars>  (544) 
False

>  <murcko_framework>  (544) 
O1c2cc3c(cc2C=CC1)CCC3

>  <np_likeness>  (544) 
1.43

>  <chemical_class>  (544) 
Coumarins and derivatives

>  <chemical_sub_class>  (544) 
Coumarins and derivatives

>  <chemical_super_class>  (544) 
Phenylpropanoids and polyketides

>  <direct_parent_classification>  (544) 
Coumarins and derivatives

>  <np_classifier_pathway>  (544) 
Shikimates and Phenylpropanoids

>  <np_classifier_superclass>  (544) 
Coumarins

>  <np_classifier_class>  (544) 
Simple coumarins

>  <np_classifier_is_glycoside>  (544) 
False

>  <organisms>  (544) 
Ruta chalepensis

>  <collections>  (544) 
BIOFACQUIM

>  <dois>  (544) 
10.3390/molecules26123684

>  <synonyms>  (544) 
2-(3-(2-methylbut-3-en-2-yl)-2-oxo-2 6 7 8-tetrahydrocyclopentagchromen-7-yl)propan-2-yl acetate

>  <cas>  (544) 
nan

$$$$

     RDKit          2D

 23 25  0  0  0  0  0  0  0  0999 V2000
    6.2087    2.5456    0.0000 C   0  0  0  0  0  0  0  0  0  0  0  0
    6.0066    1.0592    0.0000 C   0  0  0  0  0  0  0  0  0  0  0  0
    4.6184    0.4911    0.0000 C   0  0  0  0  0  0  0  0  0  0  0  0
    5.1866   -0.8972    0.0000 C   0  0  0  0  0  0  0  0  0  0  0  0
    4.0502    1.8793    0.0000 C   0  0  0  0  0  0  0  0  0  0  0  0
    3.2302   -0.0771    0.0000 C   0  0  0  0  0  0  0  0  0  0  0  0
    2.0440    0.8410    0.0000 C   0  0  0  0  0  0  0  0  0  0  0  0
    0.6558    0.2728    0.0000 C   0  0  0  0  0  0  0  0  0  0  0  0
   -0.5304    1.1910    0.0000 C   0  0  0  0  0  0  0  0  0  0  0  0
   -1.9186    0.6228    0.0000 C   0  0  0  0  0  0  0  0  0  0  0  0
   -2.1207   -0.8635    0.0000 C   0  0  0  0  0  0  0  0  0  0  0  0
   -0.9345   -1.7817    0.0000 C   0  0  0  0  0  0  0  0  0  0  0  0
    0.4537   -1.2135    0.0000 C   0  0  0  0  0  0  0  0  0  0  0  0
    1.6399   -2.1316    0.0000 O   0  0  0  0  0  0  0  0  0  0  0  0
    3.0281   -1.5635    0.0000 C   0  0  0  0  0  0  0  0  0  0  0  0
    4.2143   -2.4816    0.0000 O   0  0  0  0  0  0  0  0  0  0  0  0
   -3.5967   -1.1307    0.0000 C   0  0  0  0  0  0  0  0  0  0  0  0
   -4.3069    0.1906    0.0000 C   0  0  0  0  0  0  0  0  0  0  0  0
   -5.7932    0.3926    0.0000 C   0  0  0  0  0  0  0  0  0  0  0  0
   -5.9952   -1.0937    0.0000 C   0  0  0  0  0  0  0  0  0  0  0  0
   -5.5911    1.8790    0.0000 C   0  0  0  0  0  0  0  0  0  0  0  0
   -7.2795    0.5947    0.0000 O   0  0  0  0  0  0  0  0  0  0  0  0
   -3.2698    1.2743    0.0000 C   0  0  0  0  0  0  0  0  0  0  0  0
  1  2  2  0
  2  3  1  0
  3  4  1  0
  3  5  1  0
  3  6  1  0
  6  7  2  0
  7  8  1  0
  8  9  2  0
  9 10  1  0
 10 11  2  0
 11 12  1  0
 12 13  2  0
 13 14  1  0
 14 15  1  0
 15 16  2  0
 11 17  1  0
 17 18  1  0
 18 19  1  1
 19 20  1  0
 19 21  1  0
 19 22  1  0
 18 23  1  0
 15  6  1  0
 13  8  1  0
 23 10  1  0
M  END
>  <identifier>  (545) 
CNP0596951.1

>  <canonical_smiles>  (545) 
C=CC(C)(C)C1=CC2=CC3=C(C=C2OC1=O)C[C@@H](C(C)(C)O)C3

>  <standard_inchi>  (545) 
InChI=1S/C20H24O3/c1-6-19(2,3)16-10-14-7-12-8-15(20(4,5)22)9-13(12)11-17(14)23-18(16)21/h6-7,10-11,15,22H,1,8-9H2,2-5H3/t15-/m0/s1

>  <standard_inchi_key>  (545) 
JLSMRLDLDWAQEH-HNNXBMFYSA-N

>  <name>  (545) 
nan

>  <iupac_name>  (545) 
(7~{S})-3-(1,1-dimethylallyl)-7-(1-hydroxy-1-methyl-ethyl)-7,8-dihydro-6~{H}-cyclopenta[g]chromen-2-one

>  <annotation_level>  (545) 
5

>  <total_atom_count>  (545) 
47

>  <heavy_atom_count>  (545) 
23

>  <molecular_weight>  (545) 
312.41

>  <exact_molecular_weight>  (545) 
312.17254

>  <molecular_formula>  (545) 
C20H24O3

>  <alogp>  (545) 
3.74

>  <topological_polar_surface_area>  (545) 
50.44

>  <rotatable_bond_count>  (545) 
3

>  <hydrogen_bond_acceptors>  (545) 
3

>  <hydrogen_bond_donors>  (545) 
1

>  <hydrogen_bond_acceptors_lipinski>  (545) 
3

>  <hydrogen_bond_donors_lipinski>  (545) 
1

>  <lipinski_rule_of_five_violations>  (545) 
0

>  <aromatic_rings_count>  (545) 
2

>  <qed_drug_likeliness>  (545) 
0.69

>  <formal_charge>  (545) 
0

>  <fractioncsp3>  (545) 
0.45

>  <number_of_minimal_rings>  (545) 
3

>  <van_der_walls_volume>  (545) 
297.57

>  <contains_sugar>  (545) 
False

>  <contains_ring_sugars>  (545) 
False

>  <contains_linear_sugars>  (545) 
False

>  <murcko_framework>  (545) 
O1c2cc3c(cc2C=CC1)CCC3

>  <np_likeness>  (545) 
1.42

>  <chemical_class>  (545) 
Coumarins and derivatives

>  <chemical_sub_class>  (545) 
Coumarins and derivatives

>  <chemical_super_class>  (545) 
Phenylpropanoids and polyketides

>  <direct_parent_classification>  (545) 
Coumarins and derivatives

>  <np_classifier_pathway>  (545) 
Shikimates and Phenylpropanoids

>  <np_classifier_superclass>  (545) 
Coumarins

>  <np_classifier_class>  (545) 
Simple coumarins

>  <np_classifier_is_glycoside>  (545) 
False

>  <organisms>  (545) 
Ruta chalepensis

>  <collections>  (545) 
BIOFACQUIM

>  <dois>  (545) 
10.3390/molecules26123684

>  <synonyms>  (545) 
7-(2-hydroxypropan-2-yl)-3-(2-methylbut-3-en-2-yl)-7 8-dihydrocyclopentagchromen-2(6H)-one

>  <cas>  (545) 
nan

$$$$

     RDKit          2D

 10 10  0  0  0  0  0  0  0  0999 V2000
    3.0000    1.2990    0.0000 O   0  0  0  0  0  0  0  0  0  0  0  0
    2.2500    0.0000    0.0000 C   0  0  0  0  0  0  0  0  0  0  0  0
    3.0000   -1.2990    0.0000 O   0  0  0  0  0  0  0  0  0  0  0  0
    0.7500   -0.0000    0.0000 C   0  0  0  0  0  0  0  0  0  0  0  0
   -0.0000   -1.2990    0.0000 C   0  0  0  0  0  0  0  0  0  0  0  0
   -1.5000   -1.2990    0.0000 C   0  0  0  0  0  0  0  0  0  0  0  0
   -2.2500    0.0000    0.0000 C   0  0  0  0  0  0  0  0  0  0  0  0
   -3.7500    0.0000    0.0000 O   0  0  0  0  0  0  0  0  0  0  0  0
   -1.5000    1.2990    0.0000 C   0  0  0  0  0  0  0  0  0  0  0  0
    0.0000    1.2990    0.0000 C   0  0  0  0  0  0  0  0  0  0  0  0
  1  2  2  0
  2  3  1  0
  2  4  1  0
  4  5  2  0
  5  6  1  0
  6  7  2  0
  7  8  1  0
  7  9  1  0
  9 10  2  0
 10  4  1  0
M  END
>  <identifier>  (546) 
CNP0253685.0

>  <canonical_smiles>  (546) 
O=C(O)C1=CC=C(O)C=C1

>  <standard_inchi>  (546) 
InChI=1S/C7H6O3/c8-6-3-1-5(2-4-6)7(9)10/h1-4,8H,(H,9,10)

>  <standard_inchi_key>  (546) 
FJKROLUGYXJWQN-UHFFFAOYSA-N

>  <name>  (546) 
4-HYDROXYBENZOIC ACID

>  <iupac_name>  (546) 
4-hydroxybenzoic acid

>  <annotation_level>  (546) 
5

>  <total_atom_count>  (546) 
16

>  <heavy_atom_count>  (546) 
10

>  <molecular_weight>  (546) 
138.12

>  <exact_molecular_weight>  (546) 
138.03169

>  <molecular_formula>  (546) 
C7H6O3

>  <alogp>  (546) 
1.09

>  <topological_polar_surface_area>  (546) 
57.53

>  <rotatable_bond_count>  (546) 
1

>  <hydrogen_bond_acceptors>  (546) 
2

>  <hydrogen_bond_donors>  (546) 
2

>  <hydrogen_bond_acceptors_lipinski>  (546) 
2

>  <hydrogen_bond_donors_lipinski>  (546) 
2

>  <lipinski_rule_of_five_violations>  (546) 
0

>  <aromatic_rings_count>  (546) 
1

>  <qed_drug_likeliness>  (546) 
0.61

>  <formal_charge>  (546) 
0

>  <fractioncsp3>  (546) 
0.00

>  <number_of_minimal_rings>  (546) 
1

>  <van_der_walls_volume>  (546) 
120.52

>  <contains_sugar>  (546) 
False

>  <contains_ring_sugars>  (546) 
False

>  <contains_linear_sugars>  (546) 
False

>  <murcko_framework>  (546) 
c1ccccc1

>  <np_likeness>  (546) 
0.38

>  <chemical_class>  (546) 
Benzene and substituted derivatives

>  <chemical_sub_class>  (546) 
Benzoic acids and derivatives

>  <chemical_super_class>  (546) 
Benzenoids

>  <direct_parent_classification>  (546) 
Hydroxybenzoic acid derivatives

>  <np_classifier_pathway>  (546) 
Shikimates and Phenylpropanoids

>  <np_classifier_superclass>  (546) 
Phenolic acids (C6-C1)

>  <np_classifier_class>  (546) 
Simple phenolic acids

>  <np_classifier_is_glycoside>  (546) 
False

>  <organisms>  (546) 
Abies nobilis|Acacia adunca|Acacia lasiopetala|Acer caudatifolium|Achillea biebersteinii|Achlys triphylla|Acinetobacter baumannii|Acinetobacter calcoaceticus|Aconitum heterophyllum|Acrisione denticulata|Acrocomia sclerocarpa|Actinidia arguta|Actinidia chinensis|Actinidia polygama|Adansonia digitata|Adesmia boronioides|Adiantum lunulatum|Aeschynanthus bracteatus|Aesculus hippocastanum|Agarum cribrosum|Agathis lanceolata|Aglaia elliptica|Ailanthus altissima|Ajuga australis|Akebia quinata|Alangium platanifolium|Albertisia papuana|Albizia procera|Alcea rosea|Alchornea cordifolia|Alectoria ochroleuca|Alexandrium excavatum|Alkanna cappadocica|Alkanna hirsutissima|Allium cepa|Allium fistulosum|Allium sativum|Allium stipitatum|Aloe africana|Aloe ferox|Aloe microstigma|Aloe spicata|Aloe vera|Alstonia angustiloba|Alstonia pittieri|Alstonia spathulata|Alstonia undulifolia|Amanita caesarea|Amathia pinnata|Amomum daniellii|Amsinckia menziesii|Amsinckia tessellata|Anabaena laxa|Anacardium occidentale|Anacystis montana|Anastatica hierochuntica|Andrographis viscosula|Anemarrhena asphodeloides|Angelica acutiloba|Angelica gigas|Angelica sinensis|Angiopteris evecta|Anisomeles indica|Annona cherimola|Annona cornifolia|Anolis lineatopus|Anthocercis albicans|Aplidium multiplicatum|Aquilegia vulgaris|Arabidopsis thaliana|Arachis hypogaea|Aralidium pinnatifidum|Archidendron ellipticum|Arenaria oreophila|Aristolochia elegans|Aristolochia manshuriensis|Armoracia rusticana|Artemisia argentea|Artemisia assoana|Artemisia carvifolia|Artemisia dentata|Artemisia dracunculus|Artemisia giraldii|Artemisia juncea|Artemisia minor|Artemisia pectinata|Artemisia porrecta|Artemisia tournefortiana|Artocarpus heterophyllus|Artocarpus rigida|Asarum heterotropoides|Asarum sieboldii|Asiasarum heterotropoides|Asiasarum sieboldii|Aspalathus linearis|Aspergillus chevalieri|Aspergillus microcysticus|Aspergillus mutabilis|Asperula odora|Asphodeline damascena|Aspidixia articulata|Aster multiradiatus|Asteracantha longifolia|Asteraceae|Asteriscus aquaticus|Asterospicularia laurae|Astragalus asper|Astragalus caspicus|Astragalus sempervirens|Astragalus sinicus|Atalantia racemosa|Atalantia wightii|Atriplex parvifolia|Aucuba chinensis|Aulacomnium androgynum|Aurelia aurita|Auricularia auricula-judae|Avena sativa|Avrainvillea nigricans|Axinella agnata|Azotobacter agilis|Baccharis dracunculifolia|Baccharis grandicapitulata|Baccharis macraei|Bacterium from|Balanophora japonica|Baphia bancoensis|Beesia calthifolia|Begonia nantoensis|Berberis orthobotrys|Bersama swinnyi|Beta vulgaris|Betula platyphylla|Bishovia boliviensis|Bistorta manshuriensis|Bistorta officinalis|Bistorta vivipara|Blainvillea latifolia|Blastochloris viridis|Blumea eriantha|Boletinus paluster|Bombus pascuorum|Boschniakia rossica|Botrychium ternatum|Botrydium granulatum|Briareum violacea|Brickellia vernicosa|Brodiaea californica|Buddleia coriacea|Buddleja cordata|Buddleja variabilis|Bulbinella floribunda|Bulbophyllum protractum|Buphane fischeri|Bursera kerberi|Bursera tonkinensis|Calcarisporium thermophilum|Calea harleyi|Calea megacephala|Calostephane divaricata|Calycotome villosa|Calystegia pubescens|Capparis ovata|Caragana aurantiaca|Caragana sinica|Carica dodecaphylla|Carthamus tinctorius|Caryocar villosum|Cassine papillosa|Catananche caerulea|Cedronella canariensis|Centaurea huber-morathii|Ceriops decandra|Cestrum nocturnum|Chaenomeles sinensis|Chaenomeles speciosa|Chaetomella raphigera|Charpentiera obovata|Cheilanthes marantae|Chelidonium majus|Chenopodium formosanum|Chiton tuberculatus|Chlamydomonas reinhardtii|Choriaster granulatus|Chrozophora prostrata|Chrysanthemum indicum|Chrysanthemum leptophyllum|Chrysanthemum x morifolium|Cichorium intybus|Cinnamomum subavenium|Cinnamomum subavenium MIQ.|Cipadessa fruticosa|Cirsium setosum|Cirsium wallichii|Cistanche deserticola|Cistanche tubulosa|Citrullus lanatus|Citrus paradisi|Citrus reticulata|Citrus tangerina|Citrus unshiu|Cladonia impexa|Cladosporium cucumerinum|Clathria prolifera|Clerodendrum trichotomum|Clinacanthus nutans|Codium dwarkense|Codonopsis pilosula|Codonopsis pilosula subsp. tangshen|Coffea arabica|Coffea canephora|Coffea liberica var. dewevrei|Colladonia triquetra|Colubrina faralaotra subsp.trichocarpa.|Commelina communis|Conocybe siliginea|Conus pulicarius|Conyza canadensis|Coprosma lucida|Cordia curassavica|Cordyceps sinensis|Cordyline indivisa|Coriandrum sativum|Coronophora gregaria|Cortex lycii radicis|Corydalis calliantha|Corydalis cornuta|Corydalis persica|Corynanthe pachyceras|Corynascus setosus|Cosmos pringlei|Costasiella ocellifera|Cota tinctoria|Cotyledon secunda|Cowania mexicana|Crambe tatarica|Crataegus pinnatifida|Creosphaeria sassafras|Crepidotus fulvotomentosus|Crinum asiaticum|Crocus minimus|Crocus sativus|Crotalaria crispata|Crotalaria stolzii|Croton montevidensis|Croton penduliflorus|Croton ruizianus|Cryptocarya infectoria|Cryptolestes ferrugineus|Cryptosporium pinicola|Cucurbita maxima|Cucurbita moschata|Cunonia macrophylla|Curculigo pilosa|Curcuma aeruginosa|Curcuma domestica|Cyathula tomentosa|Cyberlindnera jadinii|Cymbastela coralliophila|Cynoglossum amabile|Cynoglossum formosanum|Cynometra lujae|Cyperus rotundus|Cyperus rotundus L.|Cypripedium calceolus|Dacrydium biforme|Daemonorops draco|Dahlstedtia araripensis|Dalbergia ecastaphyllum|Daphne lancifolia|Daphne odora|Datisca glomerata|Daucus carota|Delisea elegans|Delphinium campylocentrum|Delphinium fangshanense|Delphinium giraldii|Dermocybe cardinalis|Derris uliginosa|Dianthus superbus|Dianthus superbus var.longicalycinus (MAXIM.) WILL|Dichotomaria marginata|Didemnum inarmatum|Dioscorea althaeoides|Dioscorea gracillima|Dioscorea nipponica|Dioscorea olfersiana|Diospyros canaliculata|Diospyros eriantha|Diospyros glaucifolia|Diotis maritima|Diplazium esculentum|Disepalum plagioneurum|Dracaena concinna|Drechslera avenae|Drymaria diandra|Drynaria fortunei|Dryocosmus kuriphilus|Drypetes roxburghii|Dumortiera hirsuta|Durio oxleyanus|Dytiscus marginalis|Ecballium elaterium|Echinus microtuberculatus|Echium rubrum|Eichhornia crassipes|Elaeagnus pungens|Eleutherococcus senticosus|Eleutherococcus sessiliflorus|Elsholtzia ciliata|Elymnias thryallis|Emericellopsis minima|Entada africana|Entada polystachya|Entada rheedei|Ephedra equisetina|Epimedium brevicornu|Epimedium grandiflorum|Epimedium koreanum|Epimedium pubescens|Epimedium sagittatum|Epimedium sempervirens|Epimedium wushanense|Equisetum hiemale|Equisetum hyemale|Equsetum arvense|Eremophila serrulata|Eriobotrya japonica|Eriostemon crowei|Erylus trisphaerus|Erythrina sacleuxii|Escherichia coli|Eucalyptus albens|Eucalyptus kitsoniana|Eucalyptus melliodora|Euclea crispa|Eugenia sandwicensis|Euonymus alatus|Euonymus fortunei|Euonymus laxiflorus|Eupatorium areolare|Eupatorium laevigatum|Euphorbia antiquorum|Euphorbia formosana|Euphorbia jolkinii|Euphorbia resinifera|Euphrasia rubra|Euploca racemosa|Eurycoma longifolia|Eurycoma sp.|Euterpe precatoria|Excoecaria acerifolia|Exochorda giraldii|FOOD SAKE|Fagara macrophylla|Fagopyrum cymosum|Fagus fusca|Falcaria vulgaris|Felimida luteorosea|Ferula hezarlalehzarica|Ficus cordata subsp. salicifolia|Ficus sarmentosa var. thunbergii|Flavoparmelia euplecta|Flemingia rhodocarpa|Formica fusca|Forsythia suspensa|Forsythia viridissima|Fragaria x ananassa|Fritillaria cirrhosa|Fritillaria ningguoensis|Fritillaria persica|Fructus galangae|Fructus mori|Fuligo candida|Fumaria indica|Fusarium avenaceum|Fusarium sacchari|Ganoderma lucidum|Ganoderma sinense|Gardneria insularis|Garrya laurifolia|Gastrodia elata|Gaylussacia baccata|Geigeria schinzii|Genista anglica|Ginkgo biloba|Gleditsia caspica|Globicephala melas|Glochidion philippicum|Glycine max|Glycosmis pseudoracemosa|Glycyrrhiza glabra|Glycyrrhiza inflata|Glycyrrhiza lepidota|Glycyrrhiza uralensis|Gnaphalium cheiranthifolium|Gnetum latifolium|Gomphrena celosioides|Goniothalamus malayanus|Goniothalamus undulatus|Goupia glabra|Gracilaria textorii|Grateloupia livida|Grindelia nana|Gutierrezia dracunculoides|Gymnadenia conopsea R.BR.|Gymnopus androsaceus|Gymnosporia diversifolia|Hakea saligna|Halopitys incurvus|Haloxylon salicornicum|Haplopappus deserticola|Haplophyllum ramosissimum|Harungana madagascariensis|Hedysarum connatum|Hedysarum gmelini|Helenium integrifolium|Helichrysum angustifolium|Helichrysum auriceps|Helichrysum mixtum|Helichrysum sutherlandii|Helipterum gnaphaloides|Helipterum roseum|Hendersonula toruloidea|Herba acalyphae|Herba dracocephali tangutici|Herba ecliptae prostratae|Hesperocyparis arizonica|Heterosigma akashiwo|Hibiscus sabdariffa|Hibiscus taiwanensis|Himalaiella deltoidea|Himantoglossum hircinum|Hippophae rhamnoides|Hoffmannia strigillosa|Homalomena occulta|Homo sapiens|Hordeum vulgare var. distichon|Hortonia floribunda|Hubertia tomentosa|Humata pectinata|Humulus japonicus|Humulus lupulus|Hydnellum zonatum|Hydrangea chinensis|Hygrophorus eburneus|Hymenidium lindleyanum|Hypericum laricifolium|Hyssopus officinalis|Iberis sempervirens|Idea leuconoe|Ilex brevicuspis|Illicium verum|Imperata cylindrica|Inula grantioides|Iotrochota birotulata|Iotrochota purpurea|Ipomoea digitata|Islaya minor|Isodon amethystoides|Jasminum grandiflorum|Juniperus horizontalis|Juniperus rigida var. conferta|Juniperus scopulorum|Kali turgidum|Kopsia longiflora|Lactarius sanguifluus|Lactuca laciniata|Lafoensia glyptocarpa|Laggera alata|Lampranthus sociorum|Larix laricina|Lasianthaea podocephala|Lasiosiphon kraussianus|Lathyrus tingitanus|Laurencia pacifica|Laurencia saitoi|Laurencia spectabilis|Lavandula pedunculata|Leathesia nana|Lecanora lividocinerea|Lemaireocereus griseus|Lens culinaris|Lentinus tigrinus|Lentzea albida|Leontice kiangnanensis|Lepidophorum repandum|Lepisorus ussuriensis|Leptothorax acervorum|Lethasterias fusca|Leucanthemum maximum|Ligustrum obtusifolium|Lindera glauca|Lindera obtusiloba|Lindera sericea|Liparis keitaoensis|Lithospermum erythrorhizon|Lithothamnion corallioides|Litsea konishii|Littorina littorea|Lobelia chinensis|Lonchocarpus orotinus|Lophiostoma vaginatispora|Lophocereus marginatus|Lotus ucrainicus|Lupinus cosentinii|Lychnophora columnaris|Lysiana subfalcata|Lysimachia mauritiana|Macaranga peltata|Magnolia sprengeri|Malva silvestris|Marrubium anisodon|Marshallia graminifolia|Matricaria recutita|Maytenus loevis|Medinilla magnifica|Medium grandiflorum|Melaleuca uncinata|Melampodium leucanthum|Melanargia galathea|Melia azedarach|Melia azedarach var. toosendan|Melilotus messanensis|Melissa officinalis|Mentha pulegiformis|Mesua ferrea|Methanosarcina barkeri|Metridium senile|Microcos paniculata|Micromonospora echinospora|Microtropis fokienensis|Mikania goyazensis|Millettia erythrocalyx|Millettia pinnata|Mitracarpus scaber|Monanchora unguiculata|Monascus pilosus BCRC38072|Monascus purpureus|Monochaetia compta|Monomeria barbata|Monopteryx uaucu|Morella pensylvanica|Morinda morindoides|Moringa oleifera|Morus alba|Mycobacterium leprae|Myelobia smerintha|Myoporum platycarpum|Myristica cagayanensis|Myristica malabarica|Nasutitermes ephratae|Nauclea rhynchophylla|Naucleopsis ternstroemiiflora|Negombata magnifica|Nelumbo nucifera|Nemuaron humboldtii|Neolitsea pulchella|Nephroma australe|Nostoc spongiaeforme|Notholaena lemmonii|Ocimum basilicum|Ocimum gratissimum|Ocimum kilimandscharicum|Olea europaea|Ongokea gore|Onobrychis bobrovii|Ononis vaginalis|Ophelia bicornis|Ophidiaster ophidianus|Ophiorrhiza kuroiwae|Ophryosporus charua|Opunitia dillenii HAW.|Origanum majorana|Ormosia dasycarpa|Orthantha lutea|Oryza sativa|Osmundaria colensoi|Osteophloeum platyspermum|Osteospermum muricatum|Oxytropis muricata|Oxytropis ochrocephala|Pachycereus pringlei|Paeonia lactiflora|Paeonia peregrina|Paeonia rockii|Paeonia suffruticosa|Paeonia veitchii|Palaquium canaliculatum|Pandanus odorus|Papaver persicum|Papaver pseudocanescens|Papaver radicatum|Papaver somniferum|Parablechnum minus|Paracoccus denitrificans|Paratecoma peroba|Pastinaca sativa|Pellacalyx axillaris|Peltostigma guatemalense|Penicillium alutaceum|Penicillium chrysogenum|Penicillium cyclopium|Peperomia vulcanica|Perilla frutescens|Persea indica|Pertusaria amara|Perymenium mendezii|Pestalotiopsis oenotherae|Petriella sordida|Petroselinum crispum|Petteria ramentacea|Peucedanum oroselinum|Phaeolus schweinitzii|Phalaenopsis cornu-cervi|Phebalium dentatum|Phebalium whitei|Phegopteris bukoensis|Phellodendron amurense|Phellodendron japonicum MAXIM|Phlojodicarpus sibiricus|Phlomis crinita|Phlomis umbrosa|Phlomoides rotata|Phoebe pittieri|Phoenix dactylifera|Phyllanthus oligospermus|Physalis edulis|Physalis sordida|Picea ajanensis|Picea glauca|Picea obovata|Picris radicata|Pinus glauca|Pinus picea|Pinus radiata|Piper aequale|Piper brachystachyum|Pithecellobium racemosum|Plagiomnium cuspidatum|Plantago asiatica|Plantago lanceolata|Plantago major|Plantago media|Platycarya strobilacea|Plectosphaerella cucumerina|Plectranthus caninus|Plectranthus lanuginosus|Plectranthus nummularius|Podocarpus neriifolius|Podospora curvicolla|Pogostemon cablin|Polyalthia longifolia var.pendula|Polyalthia nemoralis|Polygala caudata|Polygonum flaccidum|Polyphaga sinensis|Polyporus anthracophilus|Polyporus tumulosus|Polysaccharidum versicolor|Polytrichum commune|Populus angustifolia|Populus pseudosimonii|Populus tomentosa|Populus yunnanensis|Posidonia oceanica|Premna odorata|Premna tomentosa|Primula hirsuta|Prorocentrum micans|Prosopis kuntzei|Protea obtusifolia|Prunus dulcis|Pseudoalteromonas luteoviolacea|Pseudoalteromonas rubra|Pseudocyphellaria australiensis|Pseudocyphellaria hirsuta|Pseudocyphellaria rubella|Pseudomonas putida|Pseudostellaria heterophylla|Pseudowintera colorata|Pseuduvaria indochinensis|Psidium acutangulum|Pteranthus dichotomus|Pteris semipinnata|Pteris setuloso-costulata|Pteris spinulosa|Pterocarpus santalinus|Pulveroboletus retipes|Punica granatum|Quercus imbricaria|Quercus serra|Radix zanthoxyli|Ranunculus baudotii|Ranunculus ternatus|Rapanea lancifolia|Rauvolfia salicifolia|Rauvolfia vomitoria|Rehmannia glutinosa|Relhania acerosa|Renealmia alpinia|Reseda muricata C.Presl.|Rhaponticum carthamoides|Rhizochalina incrustata|Rhizoctonia repens|Rhizoma curcumae|Rhizoma homalomenae occultae|Rhizoplaca baranowii|Rhizopus stolonifer|Rhodanthe maryonii|Rhodiola crenulata|Rhododendron campylocarpum|Rhododendron dauricum|Rhododendron ferrugineum|Rhododendron mucronulatum|Ribes nigrum|Rodgersia podophylla|Roemeria carica|Rosa agrestis|Rosa chinensis|Rosa rugosa|Rosmarinus officinalis|Rubus chingii|Rubus coreanus|Rubus idaeus|Rumex chalepensis|Rumex japonicus|Rumex maritimus|Rumex nepalensis|Rumohra adiantiformis|Russula sardonia|Sabina sargentii|Saccharomyces cerevisiae|Sagittaria sagittifolia|Salacia cordata|Salmonella enterica subsp. enterica serovar bovismorbificans|Salvia hispanica|Salvia nubicola|Salvia officinalis|Salvia syriaca|Salvia urolepis|Samadera indica|Sanicula epipactis|Sarcolaeana multiflora|Sarcophyton buitendijki|Sarcophyton flexuosum|Sasa paniculata|Saussurea amara|Saussurea muliensis|Scabiosa comosa|Scapania aequiloba|Scapania nemorea|Scheelea princeps|Schisandra chinensis|Schumanniophyton magnificum|Scilla maritima|Scopolia atropoides|Scorzonera pseudodivaricata|Scrophularia koelzii|Scutellaria amoena|Secale cereale|Sedum forsteri|Selinum libanotis|Senecio cathcartensis|Senecio congestus|Senecio heliopsis|Senecio scandens|Senegalia catechu|Senna spectabilis|Sequoia sempervirens|Serratula strangulata|Sesamoides canescens|Shigella flexneri|Sia ferox|Sideritis dasygnaphala|Sideritis euboea|Sidnyum turbinatum|Sinularia depressa|Sinularia molesta|Sisyrinchium californicum|Skimmia japonica|Smenospongia echina|Solanderia secunda|Solanum americanum|Solanum andigena|Solanum laxum|Solanum lycopersicum|Solanum melongena|Solanum nigrum|Solanum pseudopersicum|Solidago petiolaris|Sorbus tianschanica|Soymida febrifuga|Sparganium stoloniferum|Spartium junceum|Spatholobus suberectus|Spergula japonica|Spiracantha cornifolia|Spiraea formosana|Stellaria media|Stenocereus thurberi|Stephania aculeata|Stephania elegans|Stigma croci|Stiretrus anchorago|Streptomyces avermectinius|Streptomyces clavifer|Streptomyces erythrochromogenes|Streptomyces goshikiensis|Streptomyces melanogenes|Streptomyces misawanensis|Streptomyces noursei|Streptomyces parvisporogenes|Streptomyces platensis|Streptomyces purpurogeneiscleroticus|Streptomyces roseoverticillatus|Streptomyces xanthophaeus|Strychnos ligustrina|Strychnos spinosa|Styrax benzoin|Styrax tonkinensis|Swertia franchetiana|Swertia swertopsis|Syncarpia hillii|Tabebuia avellanedae|Tabebuia impetiginosa|Tabernaemontana divaricata|Tadehagi triquetrum|Taonia australasica|Tapinella panuoides|Taraxacum bicorne|Taraxacum borealisinense|Taraxacum coreanum|Taraxacum formosanum|Taraxacum mongolicum|Taraxacum officinale|Taraxacum platycarpum|Tarchonanthus camphoratus|Taxus baccata|Taxus brevifolia|Taxus drupacea|Tephroseris kirilowii|Tetradium glabrifolium|Teucrium barbeyanum|Teucrium pernyi|Thea sasanqua|Thelephora aurantiotincta|Thiocystis gelatinosa|Thymus quinquecostatus|Thymus vulgaris|Tiliacora racemosa|Toddalia aculeata|Trachycarpus fortunei|Trametes feei|Tribulus terrestris|Trichoderma koningi|Trichosurus vulpecula|Trifolium strepens|Trigonella stellata|Trinia scabra|Triticum aestivum|Tsuga chinensis|Turbinaria ornata|Tussilago farfara|Tylophora tanakae|Ulva lactuca|Uncaria tomentosa|Uruparia lanosa|Usnea undulata|Utricularia australis|Uvaria chamae|Vaccinium alaskaense|Vaccinium corymbosum|Vaccinium deliciosum|Vaccinium macrocarpon|Vaccinium ovatum|Vaccinium oxycoccos|Vaccinium parvifolium|Vaccinium uliginosum|Valeriana fedtschenkoi|Vallaris solanacea|Vasconcellea cundinamarcensis|Vepris louisii|Verbascum laxum|Vernonia megapotamica|Veronica kellereri|Viburnum lantana|Vigna angularis|Viguiera incana|Virgilia divaricata|Viscum articulactum|Viscum coloratum|Vitex limonifolia|Vitex negundo|Vitex polygama|Vitex rotundifolia|Vitex trifolia|Vitis betulifolia|Vitis vinifera|Vittaria anguste-elongata|Viviparus japonicus|Wikstroemia retusa|Xanthophylum rubescens|Xenoacremonium recifei|Xylocarpus granatum|Zaluzania grayana|Zanthoxylum acutifolium|Zanthoxylum nitidum|Zanthoxylum tetraspermum|Zea mays|Zephyranthes flava|Ziziphus jujuba|Zyzzya fuliginosa|delphinium x cultorum cv. magic fountains

>  <collections>  (546) 
ANPDB|Australian natural products|BIOFACQUIM|CMAUP (cCollective molecular activities of useful plants)|ChEBI NPs|ChemSpider NPs|ConMedNP|DrugBankNP|EMNPD|ETM (Ethiopian Traditional Medicine) DB|Exposome-explorer|FooDB|HIM (Herbal Ingredients in-vivo Metabolism database)|InflamNat|InterBioScreen Ltd|KNApSaCK|Latin America dataset|NANPDB (Natural Products from Northern African Sources)|NPACT|NPASS|NPEdia|NuBBEDB|Phenol-explorer|Phyto4Health|ReSpect|SANCDB|StreptomeDB|Super Natural II|TCMDB-Taiwan (Traditional Chinese Medicine database)|TCMID (Traditional Chinese Medicine Integrated Database)|TIPdb (database of Taiwan indigenous plants)|UNPD (Universal Natural Products Database)|VietHerb|Watermelon

>  <dois>  (546) 
10.1002/ptr.6000|10.1007/s11130-020-00822-2|10.1016/S0963-9969(99)00095-2|10.1016/j.bmc.2010.01.046|10.1016/j.bmc.2017.12.011|10.1016/j.bmcl.2015.01.034|10.1016/j.fitote.2017.12.024|10.1016/s0031-9422(00)88199-6|10.1021/acs.jnatprod.0c00756|10.1021/acs.jnatprod.7b00453|10.1021/acs.jnatprod.7b00707|10.1021/acs.jnatprod.9b01109|10.1021/jf1017143|10.1021/jf990354d|10.1021/np060500r|10.1021/np100902f|10.1021/np300576w|10.1021/np50119a013|10.1021/np9003323|10.1038/nbt.2488|10.1071/ch9610475|10.1080/14786419.2016.1269100|10.1089/ind.2013.0013|10.1093/jn/133.6.1806|10.1093/pcp/pcn183|10.1111/1750-3841.12404|10.1111/tpj.12747|10.1515/znc-2008-5-611|10.3390/foods9060770|10.3390/molecules24162945|10.3390/molecules24183212|10.3390/molecules27061860

>  <synonyms>  (546) 
99-96-7|p-Hydroxybenzoic acid|4-Carboxyphenol|p-Salicylic acid|Benzoic acid| 4-hydroxy-|p-carboxyphenol|Paraben-acid|4-Hydroxybenzoesaeure|p-Oxybenzoesaure|Kyselina 4-hydroxybenzoova|p-Oxybenzoesaure German|NSC 4961|parahydroxybenzoic acid|Acido p-idrossibenzoico|4-hydroxy-benzoic acid|HSDB 7233|Acido p-idrossibenzoico Italian|Kyselina 4-hydroxybenzoova Czech|EINECS 202-804-9|UNII-JG8Z55Y12H|CCRIS 8812|JG8Z55Y12H|DTXSID3026647|CHEBI:30763|HYDROXYBENZOIC ACID| PARA|AI3-01003|NSC-4961|Hydroxybenzenecarboxylic acid|4-HBA|CHEMBL441343|DTXCID806647|FEMA NO. 3986|EC 202-804-9|MFCD00002547|3pcc|3pch|4-hydroxy-benzoate|WLN: QVR DQ|PHB|CAS-99-96-7|SALICYLIC ACID IMPURITY A (EP IMPURITY)|DB04242|NCGC00166040-01|ACETYLSALICYLIC ACID IMPURITY A EP IMPURITY|PROPYL HYDROXYBENZOATE IMPURITY A (EP IMPURITY)|METHYL PARAHYDROXYBENZOATE IMPURITY A (EP IMPURITY)|C00156|p-Salicylate|AE-848\/32195059|p-hydroxy-Benzoate|phenol derivative| 8|PHLORETIN_met004|4-Hydroxybenzoate| III|AVOBENZONE_met002|bmse000092|bmse000583|SCHEMBL4110|BIDD:ER0706|p-Hydroxybenzoic Acid| Reagent|BDBM26194|P-HYDROXYBENZOIC ACID MI|CS-D1180|HY-Y0264|STR01287|Tox21_202342|Tox21_303301|AC-008|BBL011981|s3754|STL138745|4-HYDROXYBENZOIC ACID FHFI|4-HYDROXYBENZOIC ACID HSDB|4-HYDROXYBENZOIC ACID INCI|4-Hydroxybenzoic acid| >=99%| FG|AKOS000119033|AM87513|CCG-266143|NCGC00257058-01|NCGC00259891-01|H0207|NS00005418|4-Hydroxybenzoic acid| ReagentPlus(R)| 99%|EN300-21461|D86505|4-Hydroxybenzoic acid| puriss.| >=99.0% (T)|A858402|Q229970|46DD083D-BFD3-4CE1-B2D9-6C6D5FEFD3D9|J-660066|W-100004|4-Hydroxybenzoic acid| Vetec(TM) reagent grade| 99%|2-3-4'-TRIHYDROXY-4-METHOXYBENZOPHENONE_met005|F2191-0237|Z104498098|2-3-DIHYDROXY-4-METHOXY-4'-ETHOXYBENZOPHENONE_met009|4-Hydroxybenzoic acid| certified reference material| TraceCERT(R)|4-Hydroxybenzoic acid| Pharmaceutical Secondary Standard; Certified Reference Material|InChI=1\/C7H6O3\/c8-6-3-1-5(2-4-6)7(9)10\/h1-4|8H|(H|9|10|30729-36-3|Asteraceae|Sodium 4-hydroxy-benzoate

>  <cas>  (546) 
99-96-7|30729-36-3

$$$$

     RDKit          2D

 12 12  0  0  0  0  0  0  0  0999 V2000
   -1.2391    1.6805    0.0000 N   0  0  0  0  0  0  0  0  0  0  0  0
   -1.6184    0.2292    0.0000 C   0  0  0  0  0  0  0  0  0  0  0  0
   -0.5513   -0.8249    0.0000 C   0  0  0  0  0  0  0  0  0  0  0  0
    0.8952   -0.4278    0.0000 C   0  0  0  0  0  0  0  0  0  0  0  0
    1.2745    1.0235    0.0000 C   0  0  0  0  0  0  0  0  0  0  0  0
    2.7210    1.4206    0.0000 C   0  0  0  0  0  0  0  0  0  0  0  0
    3.7882    0.3665    0.0000 C   0  0  0  0  0  0  0  0  0  0  0  0
    3.4088   -1.0848    0.0000 C   0  0  0  0  0  0  0  0  0  0  0  0
    1.9624   -1.4819    0.0000 C   0  0  0  0  0  0  0  0  0  0  0  0
   -3.0649   -0.1679    0.0000 C   0  0  0  0  0  0  0  0  0  0  0  0
   -3.4442   -1.6191    0.0000 O   0  0  0  0  0  0  0  0  0  0  0  0
   -4.1321    0.8862    0.0000 O   0  0  0  0  0  0  0  0  0  0  0  0
  2  1  1  1
  2  3  1  0
  3  4  1  0
  4  5  2  0
  5  6  1  0
  6  7  2  0
  7  8  1  0
  8  9  2  0
  2 10  1  0
 10 11  2  0
 10 12  1  0
  9  4  1  0
M  END
>  <identifier>  (547) 
CNP0193965.1

>  <canonical_smiles>  (547) 
N[C@@H](CC1=CC=CC=C1)C(=O)O

>  <standard_inchi>  (547) 
InChI=1S/C9H11NO2/c10-8(9(11)12)6-7-4-2-1-3-5-7/h1-5,8H,6,10H2,(H,11,12)/t8-/m0/s1

>  <standard_inchi_key>  (547) 
COLNVLDHVKWLRT-QMMMGPOBSA-N

>  <name>  (547) 
L-phenylalanine

>  <iupac_name>  (547) 
(2~{S})-2-amino-3-phenyl-propanoic acid

>  <annotation_level>  (547) 
5

>  <total_atom_count>  (547) 
23

>  <heavy_atom_count>  (547) 
12

>  <molecular_weight>  (547) 
165.19

>  <exact_molecular_weight>  (547) 
165.07898

>  <molecular_formula>  (547) 
C9H11NO2

>  <alogp>  (547) 
0.64

>  <topological_polar_surface_area>  (547) 
63.32

>  <rotatable_bond_count>  (547) 
3

>  <hydrogen_bond_acceptors>  (547) 
2

>  <hydrogen_bond_donors>  (547) 
2

>  <hydrogen_bond_acceptors_lipinski>  (547) 
2

>  <hydrogen_bond_donors_lipinski>  (547) 
2

>  <lipinski_rule_of_five_violations>  (547) 
0

>  <aromatic_rings_count>  (547) 
1

>  <qed_drug_likeliness>  (547) 
0.69

>  <formal_charge>  (547) 
0

>  <fractioncsp3>  (547) 
0.22

>  <number_of_minimal_rings>  (547) 
1

>  <van_der_walls_volume>  (547) 
156.41

>  <contains_sugar>  (547) 
False

>  <contains_ring_sugars>  (547) 
False

>  <contains_linear_sugars>  (547) 
False

>  <murcko_framework>  (547) 
c1ccccc1

>  <np_likeness>  (547) 
0.48

>  <chemical_class>  (547) 
Carboxylic acids and derivatives

>  <chemical_sub_class>  (547) 
Amino acids, peptides, and analogues

>  <chemical_super_class>  (547) 
Organic acids and derivatives

>  <direct_parent_classification>  (547) 
Phenylalanine and derivatives

>  <np_classifier_pathway>  (547) 
Amino acids and Peptides

>  <np_classifier_superclass>  (547) 
Small peptides

>  <np_classifier_class>  (547) 
Aminoacids

>  <np_classifier_is_glycoside>  (547) 
False

>  <organisms>  (547) 
Aconitum variegatum|Allium sativum|Aniba megaphylla|Arabidopsis thaliana|Areca catechu|Berberis integerrima|Brassica juncea|Brassica oleracea var. sabauda|Calvatia fenzlii|Calvatia gigantea|Calvatia lilacina|Canarium villosum|Catharanthus roseus|Centipeda minima|Cestrum nocturnum|Cheilanthes fragrans|Chlamydomonas reinhardtii|Cichorium endivia|Cineraria aspera|Cistanche deserticola|Clerodendrum calamitosum|Codonopsis pilosula|Codonopsis pilosula subsp. tangshen|Codonopsis pilosula var. modesta|Codonopsis subglobosa|Codonopsis tangshen|Colla carapacis|Colla carapacis et plastri testudinis|Concha meretricis seu cyclinae|Cornu saigae tataricae|Cucumis sativus|Daucus carota|Echinopsis macrogona|Elephantopus angustifolius|Escherichia coli|Escherichia coli K12|FOOD SAKE|Fadogia agrestis|Fagopyrum esculentum|Ficus simplicissima|Ginkgo biloba|Grevillea robusta|Herbertus sakuraii|Homo sapiens|Isoplexis sceptrum|Libocedrus decurrens|Loranthus parasiticus|Lycium barbarum|Lycopersicon esculentum|Lycopersicon esculentum var.cerasiforme (DUNAL) ALEF.|Mentha canadensis|Mus musculus|Nauclea latifolia|Ostrya carpinifolia|Ovibos moschatus|Pinellia ternata|Pisum sativum|Plastrum testudinis|Plastrum testudinis praparata|Rehmannia glutinosa|Rhodospirillum rubrum|Saccharomyces cerevisiae|Salvia hispanica|Sclerotium poriae cocos|Semen astragali complanati|Semen juglandis|Semen sojae praeparata|Sinapis alba|Sinocrassula indica|Stephania dielsiana|Taraxacum borealisinense|Taraxacum coreanum|Taraxacum formosanum|Taraxacum mongolicum|Taraxacum officinale|Taraxacum platycarpum|Ulva lactuca|Ziziphus jujuba|Zyzzya fuliginosa

>  <collections>  (547) 
Australian natural products|BIOFACQUIM|BitterDB|CMAUP (cCollective molecular activities of useful plants)|ChEBI NPs|DrugBankNP|EMNPD|ETM (Ethiopian Traditional Medicine) DB|Exposome-explorer|FooDB|GNPS (Global Natural Products Social Molecular Networking)|KNApSaCK|Marine Natural Products|NPASS|NPEdia|Phyto4Health|Super Natural II|TCMDB-Taiwan (Traditional Chinese Medicine database)|TIPdb (database of Taiwan indigenous plants)|VietHerb

>  <dois>  (547) 
10.1002/elps.201300019|10.1002/yea.3015|10.1007/s10529-014-1584-4|10.1021/jf101029a|10.1023/a:1024255208563|10.1038/msb.2011.65|10.1038/nbt.2488|10.1089/ind.2013.0013|10.1111/j.1750-3841.2008.00716.x|10.1111/tpj.12747|10.1371/journal.pone.0016957|10.1371/journal.pone.0070803|10.1371/journal.pone.0073076|10.3390/molecules27061860|10.3390/nu11061242|10.3945/jn.113.178772|10.5219/332

>  <synonyms>  (547) 
phenylalanine|63-91-2|(S)-2-Amino-3-phenylpropanoic acid|3-Phenyl-L-alanine|(S)-Phenylalanine|beta-Phenyl-L-alanine|Antibiotic FN 1636|H-Phe-OH|L-Alanine| phenyl-|Alanine| 3-phenyl-|fenilalanina|Phenylalaninum|(S)-alpha-Amino-beta-phenylpropionic acid|(S)-(-)-Phenylalanine|FEMA No. 3585|Phenylalanine (VAN)|beta-Phenylalnine| (-)-|Fenilalanina Spanish|Phenylalaninum Latin|(S)-alpha-Aminohydrocinnamic acid|Alanine| phenyl-| L-|endophenyl|(S)-alpha-Amino-benzenepropanoic acid|Phenylalanine| L-|HSDB 1825|Hydrocinnamic acid| alpha-amino-|phe|2-Amino-3-phenylpropionic acid| L-|NSC 79477|Phenylalamine|Phenylalanine USAN:INN:JAN|alpha-Aminohydrocinnamic acid| L-|Benzenepropanoic acid| alpha-amino-| (S)-|EINECS 200-568-1|(-)-phenylalanine|L-Phe|laevo-phenyl alanine|UNII-47E5O17Y3R|CCRIS 4254|L-PHENYLALININE|CHEBI:17295|47E5O17Y3R|(-)-beta-Phenylalanine|MFCD00064227|NSC-79477|CHEMBL301523|DTXSID4040763|67675-33-6|PHENYLALANINE (II)|PHENYLALANINE II|2S-alpha-phenylalanine|PHENYLALANINE (MART.)|Phenylalanine (L-Phenylalanine)|PHENYLALANINE (EP MONOGRAPH)|Phenylalanine (USAN:USP:INN:JAN)|PHENYLALANINE USP MONOGRAPH|.beta.-Phenylalanine|Phenyl-.alpha.-alanine|.beta.-Phenyl-.alpha.-alanine|Phenylalanine (USP\/INN)|L-phenylaniline|L-phenyl Alanine|PheOH|1usi|NCI9959|Phenylalanine1532|racemic phenylalanine|Phenylalanine Phenolic|1f2p|alpha-Aminohydrocinnamate|L-Phenylalanine| 99%|L-Phenylalanine (JP17)|bmse000045|bmse000900|bmse000921|bmse001016|SCHEMBL8119|NCIStruc1_000204|NCIStruc2_000248|PHENYLALANINE HSDB|PHENYLALANINE USAN|PHENYLALANINE VANDF|L-Phenylalanine (H-Phe-OH)|L-PHENYLALANINE FCC|L-PHENYLALANINE JAN|L-2-Amino-3-phenylpropionate|L-PHENYLALANINE FHFI|L-Phenylalanine| 99%| FCC|PHENYLALANINE WHO-DD|GTPL3313|(S)-alpha-Aminobenzenepropanoate|DTXCID2020763|(S)-2-amino-3-phenylpropanoate|BDBM18073|1F9436B3-8B0D-4AC6-A004-4249B0BDA436|L-PHENYLALANINE USP-RS|L-Phenylalanine non-animal source|30394-07-1|HY-N0215|L-2-amino-3-phenyl-propionic acid|AC8117|CCG-37572|NCGC00013103|L-2|3|4|5|6-3Hphenylalanine|(S)-alpha-Amino-beta-phenylpropionate|AKOS010373257|AKOS015853585|DB00120|L-Phenylalanine| Vetec(TM)| 98.5%|L-Phenylalanine| reagent grade| >=98%|LEUCINE IMPURITY C EP IMPURITY|NCGC00013103-02|NCGC00095047-01|AC-22417|AS-14129|BP-20538|TYROSINE IMPURITY A EP IMPURITY|DB-029978|DB-266631|DB-266632|IS_PHENYLALANINE-2|3|4|5|6-D5|L-Phenylalanine| 99%| natural| FCC| FG|AM20060774|NATEGLINIDE IMPURITY D EP IMPURITY|NS00068215|P0134|EN300-52626|L-Phenylalanine| BioUltra| >=99.0% (NT)|A20654|C00079|D00021|M02961|L-Phenylalanine| SAJ special grade| >=99.0%|Q170545|L-.ALPHA.-AMINO-.BETA.-PHENYLPROPIONIC ACID|L-Phenylalanine| Vetec(TM) reagent grade| >=98%|Q-201326|L-Phenylalanine| Cell Culture Reagent (H-L-Phe-OH)|LYSINE HYDROCHLORIDE IMPURITY B EP IMPURITY|F0001-2360|Z756430566|L-Phenylalanine| certified reference material| TraceCERT(R)|Phenylalanine| European Pharmacopoeia (EP) Reference Standard|3-(2-AMINOETHYL)-1|3-THIAZOLIDINE-2|4-DIONEHYDROCHLORIDE|L-Phenylalanine| United States Pharmacopeia (USP) Reference Standard|L(-)-phenylalanine; Beta-phenylalanine;Dl-2-amino-3-phenylpropanoic acid;|L-Phenylalanine| analytical standard| for Nitrogen Determination According to Kjeldahl Method|L-Phenylalanine| Pharmaceutical Secondary Standard; Certified Reference Material|L-Phenylalanine| from non-animal source| meets EP| JP| USP testing specifications| suitable for cell culture| 98.5-101.0%|L-Phenylalanine

>  <cas>  (547) 
63-91-2|67675-33-6|30394-07-1

$$$$

     RDKit          2D

 11 11  0  0  0  0  0  0  0  0999 V2000
   -3.6025   -1.3505    0.0000 O   0  0  0  0  0  0  0  0  0  0  0  0
   -3.1764    0.0877    0.0000 C   0  0  0  0  0  0  0  0  0  0  0  0
   -4.2089    1.1758    0.0000 O   0  0  0  0  0  0  0  0  0  0  0  0
   -1.7178    0.4378    0.0000 C   0  0  0  0  0  0  0  0  0  0  0  0
   -0.6853   -0.6503    0.0000 C   0  0  0  0  0  0  0  0  0  0  0  0
    0.7732   -0.3002    0.0000 C   0  0  0  0  0  0  0  0  0  0  0  0
    1.1993    1.1380    0.0000 C   0  0  0  0  0  0  0  0  0  0  0  0
    2.6579    1.4881    0.0000 C   0  0  0  0  0  0  0  0  0  0  0  0
    3.6904    0.4000    0.0000 C   0  0  0  0  0  0  0  0  0  0  0  0
    3.2643   -1.0382    0.0000 C   0  0  0  0  0  0  0  0  0  0  0  0
    1.8057   -1.3883    0.0000 C   0  0  0  0  0  0  0  0  0  0  0  0
  1  2  2  0
  2  3  1  0
  2  4  1  0
  4  5  2  3
  5  6  1  0
  6  7  2  0
  7  8  1  0
  8  9  2  0
  9 10  1  0
 10 11  2  0
 11  6  1  0
M  END
>  <identifier>  (548) 
CNP0390407.0

>  <canonical_smiles>  (548) 
O=C(O)C=CC1=CC=CC=C1

>  <standard_inchi>  (548) 
InChI=1S/C9H8O2/c10-9(11)7-6-8-4-2-1-3-5-8/h1-7H,(H,10,11)

>  <standard_inchi_key>  (548) 
WBYWAXJHAXSJNI-UHFFFAOYSA-N

>  <name>  (548) 
2-Propenoic acid, 3-phenyl-

>  <iupac_name>  (548) 
3-phenylprop-2-enoic acid

>  <annotation_level>  (548) 
5

>  <total_atom_count>  (548) 
19

>  <heavy_atom_count>  (548) 
11

>  <molecular_weight>  (548) 
148.16

>  <exact_molecular_weight>  (548) 
148.05243

>  <molecular_formula>  (548) 
C9H8O2

>  <alogp>  (548) 
1.78

>  <topological_polar_surface_area>  (548) 
37.30

>  <rotatable_bond_count>  (548) 
2

>  <hydrogen_bond_acceptors>  (548) 
1

>  <hydrogen_bond_donors>  (548) 
1

>  <hydrogen_bond_acceptors_lipinski>  (548) 
1

>  <hydrogen_bond_donors_lipinski>  (548) 
1

>  <lipinski_rule_of_five_violations>  (548) 
0

>  <aromatic_rings_count>  (548) 
1

>  <qed_drug_likeliness>  (548) 
0.65

>  <formal_charge>  (548) 
0

>  <fractioncsp3>  (548) 
0.00

>  <number_of_minimal_rings>  (548) 
1

>  <van_der_walls_volume>  (548) 
139.21

>  <contains_sugar>  (548) 
False

>  <contains_ring_sugars>  (548) 
False

>  <contains_linear_sugars>  (548) 
False

>  <murcko_framework>  (548) 
c1ccccc1

>  <np_likeness>  (548) 
0.40

>  <chemical_class>  (548) 
Cinnamic acids and derivatives

>  <chemical_sub_class>  (548) 
Cinnamic acids and derivatives

>  <chemical_super_class>  (548) 
Phenylpropanoids and polyketides

>  <direct_parent_classification>  (548) 
Cinnamic acids and derivatives

>  <np_classifier_pathway>  (548) 
Shikimates and Phenylpropanoids

>  <np_classifier_superclass>  (548) 
Phenylpropanoids (C6-C3)

>  <np_classifier_class>  (548) 
Cinnamic acids and derivatives

>  <np_classifier_is_glycoside>  (548) 
False

>  <organisms>  (548) 
Absidia caerulea|Acanthosyris paulo-alvinii|Achillea alexandri-regis Bornm.& Rudski|Achyranthes aspera|Aconitum koreanum|Aconitum vilmorini|Aeschynanthus bracteatus|Aglaia perviridis|Aleochara curtula|Aloe africana|Aloe ferox|Aloe spicata|Aloe vera|Alpinia spp.|Alsidium corallinum|Anagallis monelli|Anastatica hierochuntica|Anaxyrus americanus|Andrachne rotundifolia|Andrographis paniculata|Anthotroche myoporoides|Apis mellifera ligustica|Apis mellifica|Arabidopsis thaliana|Ardisia japonica|Artemisia anomala|Artemisia koidzumii|Astragalus flexus|Astragalus mongholicus|Axinella weltneri|Balanophora abbreviata B1|Bauhinia glauca|Betula alnoides|Caesalpinia brevifolia|Callicarpa macrophylla|Callitris columellaris|Camphora|Campsis grandiflora|Cestrum nocturnum|Chaenomeles sinensis|Chaenomeles speciosa|Cicer songoricum|Cicuta virosa|Cinamomum cassia|Cinnamomum aromaticum|Cinnamomum burmannii Nees ex BI|Cinnamomum camphora|Cinnamomum cassia|Cinnamomum japonicum|Cinnamomum spp.|Cinnamomum tamala|Cinnamomum verum|Cinnamomum zeylanicum|Cistus ladaniferus|Citrullus lanatus|Citrullus lanatus subsp. vulgaris|Citrus reticulata|Citrus sinensis|Citrus unshiu|Cleistanthus gracilis|Coffea arabica|Coffea canephora|Commiphora myrrha|Coriandrum sativum|Cytisus caramanicus|Dactynotus ambrosiae|Desmos chinensis|Dictyota binghamiae|Drynaria fortunei|Ekebergia benguelensis|Eliokarmos thyrsoides|Embelia barbeyana|Engelhardia roxburghiana|Ephedra equisetina|Erythoxylum coca|Erythrina vogelii|Erythroxylum coca|Euphorbia micractina|Euphorbia neriifolia|Fissistigma polyanthoides|Foeniculum vulgare|Fragaria x ananassa|Galdieria sulphuraria|Gerbera saxatilis|Globularia spp.|Globularia vulgaris|Glycyrrhiza foetida|Glycyrrhiza uralensis|Gmelina arborea|Goniothalamus amuyon|Gymnacranthera paniculata|Gynerium sagittatum|Harpagophytum procumbens|Helenium virginicum|Helianthus tuberosus|Heliotropium bovei|Heliotropium digynum|Herba meconpsis integrifoliae|Hericium erinaceus|Homo sapiens|Hypericum caprifoliatum|Illicium fargesii|Imperata cylindrica|Indigofera carlesii|Inula japonica|Jatropha curcas|Lactococcus lactis|Lentinus tigrinus|Leptosyne stillmanii|Leucophyllum ambiguum|Lilium candidum|Liquidambar orientalis|Liquidamber orientalis|Lonicera japonica|Lupinus hirsutus|Lycium chinense|Mandragora autumnalis|Maytenus canariensis|Maytenus ebenifolia|Medicago sativa|Melicertus plebejus|Mentha arvensis|Mentha canadensis|Mexican propolis|Mitracarpus scaber|Mortonia palmeri|Morus alba|Morus bombycis|Mycale mytilorum|Myroxylon pereirae|Nannoglottis ravida|Nelumbo nucifera|Neonotonia wightii|Olea europaea|Oleum cinnamomi|Oocystis polymorpha|Ophiura ophiura|Paeonia lactiflora|Paeonia rockii|Panax notoginseng|Parthenium argentatum|Phaseolus aureus|Phialophora alba|Phoebe grandis|Phyllanthus emblica|Phyllidia ocellata|Picrorhiza kurooa|Picrorhiza kurrooa|Picrorhiza scrophulariiflora|Piper sarmentosum|Pisum sativum|Plantago major|Platycodon grandiflorus|Pleurocybella porrigens|Plumbago zeylanica|Podocarpus ferruginea|Pogostemon cablin|Polyalthia crassa|Populus spp.|Posidonia oceanica|Pseudostellaria heterophylla|Ramulus cinnamomi|Ramulus cinnamomi preparata|Recordia reitzii|Rehmannia glutinosa|Rheum coreanum|Rheum maximowiczii|Rheum officinale|Rheum palmatum|Rheum tanguticum|Rhododendron dauricum|Ribes rubrum|Rubus chingii|Rubus coreanus|Rubus idaeus|Rubus pileatus|Sauromatum giganteum|Saussurea involucrata|Scrophalaria ningpoensis|Scrophularia buergeriana|Scrophularia ningpoensis|Scrophularia nodosa|Scutellaria barbata|Selinum vaginatum|Sorghum bicolor|Spina gleditsiae|Streptomyces|Streptomyces NIO 10068|Streptomyces ambofaciens BI0048|Streptomyces lividans|Streptomyces maritimus|Streptomyces sp. SCSIO 11863|Styrax benzoin|Styrax tonkinensis|Suckleya suckleyana|Syringa afghanica|Syringa pinnafolia|Tarenna attenuata|Taxus baccata|Tetrapanax papyriferus|Trachyopsis aplysinoides|Ulva pertusa|Vaccinium macrocarpon|Vaccinium vitis-idaea|Verbascum fruticulosum|Viscum coloratum|Xanthium sibiricum|Xanthium strumarium|Xanthorrhoea preissii|Zingiber officinale|Ziziphus jujuba

>  <collections>  (548) 
ANPDB|AfroMalariaDB|Australian natural products|BIOFACQUIM|CMAUP (cCollective molecular activities of useful plants)|ChEBI NPs|ChemSpider NPs|ConMedNP|EMNPD|Exposome-explorer|FooDB|HIT (Herbal Ingredients Targets)|KNApSaCK|Latin America dataset|NANPDB (Natural Products from Northern African Sources)|NPACT|NPASS|NPEdia|Phenol-explorer|Phyto4Health|ReSpect|StreptomeDB|Super Natural II|TCMDB-Taiwan (Traditional Chinese Medicine database)|TCMID (Traditional Chinese Medicine Integrated Database)|TIPdb (database of Taiwan indigenous plants)|UNPD (Universal Natural Products Database)|VietHerb|Watermelon

>  <dois>  (548) 
10.1016/j.biortech.2011.10.045|10.1016/j.bmc.2010.01.046|10.1016/j.bmc.2010.01.087|10.1016/j.bmcl.2012.05.051|10.1016/j.bmcl.2015.05.089|10.1021/acs.jnatprod.9b00208|10.1021/acs.orglett.9b03460|10.1021/np200557e|10.1021/np900031q|10.1021/np900305j|10.1021/np900772m|10.1071/ch9740331|10.1093/pcp/pcn183|10.1111/1750-3841.15463|10.1111/lam.12034|10.1128/JB.187.12.4286-4289.2005|10.1186/s12906-015-0873-3|10.3389/fbioe.2015.00116|10.3390/foods9060770|10.3390/ijms15022327|10.3390/md15120389|10.3390/molecules27061860|10.3945/jn.109.113613

>  <synonyms>  (548) 
3-Phenyl-2-propenoic acid|Cinnamylic acid|Kyselina skoricove|Heparin| lithium salt|Acidum cinnamylicum|NSC 9189|Benzenepropenoic acid|Benzylideneacetic acid|Cinnamic acid (natural)|.beta.-Phenylacrylic acid|3-Phenylacrylic acid; beta-Phenylacrylic acid|CINNAMATE SODIUM|DTXSID40110056|cinnamoic acid|EINECS 210-708-3|cinnamoyl alcohol|NSC 623441|BRN 0507757|AI3-00891|Zimtsaeure German|(E\/Z)-cinnamic acid|Styrene Carboxylic Acid|Kyselina skoricove Czech|SCHEMBL5814771|AKOS016890705|DB-003617|Q57826855|t-Cinnamic acid|cis-Cinnamic acid|trans-cinnamate|trans-Cinnamic acid

>  <cas>  (548) 
nan

$$$$

     RDKit          2D

 10 10  0  0  0  0  0  0  0  0999 V2000
    2.5988    0.9104    0.0000 O   0  0  0  0  0  0  0  0  0  0  0  0
    1.7848   -0.3495    0.0000 C   0  0  0  0  0  0  0  0  0  0  0  0
    2.4688   -1.6844    0.0000 O   0  0  0  0  0  0  0  0  0  0  0  0
    0.2866   -0.2745    0.0000 C   0  0  0  0  0  0  0  0  0  0  0  0
   -0.5274   -1.5344    0.0000 C   0  0  0  0  0  0  0  0  0  0  0  0
   -2.0255   -1.4594    0.0000 C   0  0  0  0  0  0  0  0  0  0  0  0
   -2.7096   -0.1244    0.0000 C   0  0  0  0  0  0  0  0  0  0  0  0
   -1.8956    1.1355    0.0000 C   0  0  0  0  0  0  0  0  0  0  0  0
   -0.3975    1.0604    0.0000 C   0  0  0  0  0  0  0  0  0  0  0  0
    0.4166    2.3203    0.0000 O   0  0  0  0  0  0  0  0  0  0  0  0
  1  2  2  0
  2  3  1  0
  2  4  1  0
  4  5  2  0
  5  6  1  0
  6  7  2  0
  7  8  1  0
  8  9  2  0
  9 10  1  0
  9  4  1  0
M  END
>  <identifier>  (549) 
CNP0230203.0

>  <canonical_smiles>  (549) 
O=C(O)C1=CC=CC=C1O

>  <standard_inchi>  (549) 
InChI=1S/C7H6O3/c8-6-4-2-1-3-5(6)7(9)10/h1-4,8H,(H,9,10)

>  <standard_inchi_key>  (549) 
YGSDEFSMJLZEOE-UHFFFAOYSA-N

>  <name>  (549) 
salicylic acid

>  <iupac_name>  (549) 
2-hydroxybenzoic acid

>  <annotation_level>  (549) 
5

>  <total_atom_count>  (549) 
16

>  <heavy_atom_count>  (549) 
10

>  <molecular_weight>  (549) 
138.12

>  <exact_molecular_weight>  (549) 
138.03169

>  <molecular_formula>  (549) 
C7H6O3

>  <alogp>  (549) 
1.09

>  <topological_polar_surface_area>  (549) 
57.53

>  <rotatable_bond_count>  (549) 
1

>  <hydrogen_bond_acceptors>  (549) 
2

>  <hydrogen_bond_donors>  (549) 
2

>  <hydrogen_bond_acceptors_lipinski>  (549) 
2

>  <hydrogen_bond_donors_lipinski>  (549) 
2

>  <lipinski_rule_of_five_violations>  (549) 
0

>  <aromatic_rings_count>  (549) 
1

>  <qed_drug_likeliness>  (549) 
0.61

>  <formal_charge>  (549) 
0

>  <fractioncsp3>  (549) 
0.00

>  <number_of_minimal_rings>  (549) 
1

>  <van_der_walls_volume>  (549) 
119.91

>  <contains_sugar>  (549) 
False

>  <contains_ring_sugars>  (549) 
False

>  <contains_linear_sugars>  (549) 
False

>  <murcko_framework>  (549) 
c1ccccc1

>  <np_likeness>  (549) 
0.14

>  <chemical_class>  (549) 
Benzene and substituted derivatives

>  <chemical_sub_class>  (549) 
Benzoic acids and derivatives

>  <chemical_super_class>  (549) 
Benzenoids

>  <direct_parent_classification>  (549) 
Salicylic acids

>  <np_classifier_pathway>  (549) 
Shikimates and Phenylpropanoids

>  <np_classifier_superclass>  (549) 
Phenolic acids (C6-C1)

>  <np_classifier_class>  (549) 
Simple phenolic acids

>  <np_classifier_is_glycoside>  (549) 
False

>  <organisms>  (549) 
Abies alba Mill.|Abrus pulchellus|Achyranthes aspera|Aconitum carmichaelii|Aconitum coreanum|Aconitum japonicum|Actaea dahurica|Actaea heracleifolia|Actaea simplex|Actinidia deliciosa|Alibertia sessilis|Alstonia muelleriana|Amsinckia tessellata|Anacardium occidentale|Anolis lineatopus|Arabidopsis thaliana|Artemisia annua|Artemisia annua L.|Artemisia capillaris|Artemisia cina|Artemisia scoparia|Aspalathus linearis|Aspergillus mutabilis|Aucuba chinensis|Aurelia aurita|Bistorta vivipara|Bletilla striata|Brickellia vernicosa|Broussonetia kazinoki|Broussonetia papyrifera|Burchardia multiflora|Callicarpa integerrima|Carduus crispus|Carica dodecaphylla|Catharanthus roseus|Cedronella canariensis|Centaurea huber-morathii|Centella asiatica|Cephalotaxus fortunei|Cestrum nocturnum|Chlamydomonas reinhardtii|Cimicifuga foetida|Cinnamomum verum|Citrullus lanatus|Citrus paradisi|Citrus reticulata|Citrus tangerina|Citrus unshiu|Cordyceps sinensis|Coreopsis nodosa|Coriandrum sativum|Cossypium herbaceum|Crocus minimus|Crocus sativus|Cunonia macrophylla|Curculigo pilosa|Curcuma longa|Cynanchum chinense|Cynometra lujae|Dacrydium cupressinum|Diospyros kaki|Ecklonia kurome|Entada rheedei|Erylus trisphaerus|Eupatorium areolare|FOOD SAKE|Fagopyrum esculentum|Felimida luteorosea|Flindersia laevicarpa C.T.White et Francis.|Foeniculum vulgare|Fructus choerospondiatis|Fructus psoraleae corylifoliae|Gaultheria procumbens|Gaultheria yunnanensis|Gleditsia caspica|Glehnia littoralis|Glycine tomentella|Gossypium herbaceum|Gracilaria textorii|Haematococcus lacustris|Haplophyllum ramosissimum|Harpephyllum caffrum|Helichrysum mixtum|Herba artemisiae scopariae|Homo sapiens|Hordeum vulgare|Humata pectinata|Hydnellum zonatum|Hypoxylon rubiginosum|Imperata cylindrica var. major|Inula britannica|Isatis indigotica|Isatis tinctoria|Isodon japonica var. glaucocalyx|Juglans regia|Kali turgidum|Laggera alata|Lysiana subfalcata|Macaranga peltata|Malva silvestris|Mangifera indica|Melia azedarach|Melia azedarach var. toosendan|Menispermum dauricum|Mentha x piperita|Metagentiana rhodantha|Myristica fragrans|Nelumbo nucifera|Nicotiana undulata|Nidus vespae|Nostoc spongiaeforme|Orthantha lutea|Osteospermum muricatum|Paeonia rockii|Paeonia suffruticosa|Panax ginseng|Panax schinseng|Parablechnum minus|Passiflora incarnata|Peperomia vulcanica|Phaeolus schweinitzii|Physalis edulis|Pinus edulis|Pinus radiata|Piptothrix pubens|Plantago major|Platycarya strobilacea|Polygonatum cyrtonema|Polygonatum falcatum|Polygonatum kingianum|Polygonatum sibiricum|Populus pseudosimonii|Premna tomentosa|Pseudomonas aeruginosa|Pseudostellaria heterophylla|Pteris multifida|Pterocarya stenoptera|Pterocladiella tenuis|Punica granatum|Radix moghaniae philippinensis|Rehmannia glutinosa|Rhaponticum carthamoides|Rosa rugosa|Rosmarinus officinalis|Rubus chingii|Rubus coreanus|Rubus idaeus|Saccharina japonica|Saccharomyces pastori|Sagittaria sagittifolia|Salvia staminea|Sauromatum guttatum|Sauromatum venosum|Saussurea amara|Schisandra chinensis|Senecio paludaffinis|Senna alexandrina|Sia ferox|Sideritis euboea|Sisyrinchium californicum|Sorbus tianschanica|Stephania elegans|Streptomyces PM9|Streptomyces flocculus|Streptomyces scabies|Swertia angustifolia|Swertia swertopsis|Tabebuia avellanedae|Tachigalia paniculata|Taxodium distichum|Taxus baccata|Taxus brevifolia|Thymus vulgaris|Tournefortia sarmentosa|Trichoderma koningi|Trigonella grandiflora|Tripolium pannonicum|Tsuga chinensis|Tulipa gesneriana|Usnea undulata|Utricularia australis|Uvaria calamistrata|Vaccinium macrocarpon|Virgilia divaricata|Xanthium strumarium|Zingiber officinale

>  <collections>  (549) 
ANPDB|Australian natural products|BIOFACQUIM|CMAUP (cCollective molecular activities of useful plants)|ChEBI NPs|ChemSpider NPs|DrugBankNP|ETM (Ethiopian Traditional Medicine) DB|Exposome-explorer|FooDB|GNPS (Global Natural Products Social Molecular Networking)|HIM (Herbal Ingredients in-vivo Metabolism database)|HIT (Herbal Ingredients Targets)|KNApSaCK|Latin America dataset|NANPDB (Natural Products from Northern African Sources)|NPASS|NPEdia|NuBBEDB|Phenol-explorer|Phyto4Health|PubChem NPs|ReSpect|StreptomeDB|Super Natural II|TCMDB-Taiwan (Traditional Chinese Medicine database)|TCMID (Traditional Chinese Medicine Integrated Database)|TIPdb (database of Taiwan indigenous plants)|UNPD (Universal Natural Products Database)|VietHerb|Watermelon

>  <dois>  (549) 
10.1007/s00425-015-2460-8|10.1016/B978-0-12-394294-4.00006-7|10.1016/j.arabjc.2013.12.011|10.1016/j.fitote.2011.08.014|10.1016/j.foodchem.2020.128444|10.1016/s0031-9422(00)88199-6|10.1021/jf035073r|10.1021/jf101029a|10.1021/jf1017143|10.1021/np100902f|10.1021/np50106a021|10.1038/ki.2011.30|10.1093/pcp/pcn183|10.1111/tpj.12747|10.1128/AEM.01169-17|10.1177/154405910208100613|10.1590/S0103-50532007000700017|10.3390/molecules27020483|10.3390/molecules27061860

>  <synonyms>  (549) 
2-Hydroxybenzoic acid|69-72-7|2-Carboxyphenol|Rutranex|Salonil|Retarder W|Duoplant|Keralyt|Psoriacid-S-stift|Freezone|Saligel|Ionil|Salicylic acid soap|Stri-Dex|Verrugon|Salicylic acid collodion|Benzoic acid| 2-hydroxy-|Acidum salicylicum|Trans-Ver-Sal|2-Hydroxybenzenecarboxylic acid|Phenol-2-carboxylic acid|Orthohydroxybenzoic acid|Salicyclic acid|Acido salicilico|Kyselina salicylova|Salicylic acid| tech.|Duofilm|Ionil-Plus|Dr. Scholl's callus removers|Clear away wart remover|Duofil wart remover|Domerine|Occlusal|Sebucare|Sebulex|Mediplast pads|Akurza Lotion|Hydrisalic Gel|Kyselina 2-hydroxybenzoova|Akurza Cream|Ionil plus|Salex Lotion|Salex Cream|DuoPlant Gel|Caswell No. 731|Dr. Scholl's corn removers|Kyselina salicylova Czech|salicylicum acidum|DHS Sal Shampoo|P&S Shampoo|Dr. Scholl's wart remover kit|Durasal|Acido salicilico Italian|NSC 180|Advanced pain relief corn removers|Acido o-idrossibenzoico|Kyselina 2-hydroxybenzoova Czech|Advanced pain relief callus removers|CCRIS 6714|HSDB 672|Acido o-idrossibenzoico Italian|AI3-02407|Propa pH Peel-Off Acne Mask|Salicylic acid & Sulfur Soap|EPA Pesticide Chemical Code 076602|Anti-blemish|CHEBI:16914|BRN 0774890|NSC-180|UNII-O414PZ4LPZ|EINECS 200-712-3|O414PZ4LPZ|MFCD00002439|DTXSID7026368|FEMA NO. 3985|Bazuka Extra Strength Gel|CHEMBL424|Salicylic acid USP:JAN|MLS000069653|DTXCID206368|29656-58-4|K 537|EC 200-712-3|ATA fraction 10| ammonium salt|NCGC00159447-05|SMR000059163|Acid| Salicylic|ortho-Hydroxybenzoic Acid|SALICYLIC ACID (USP)|o Hydroxybenzoic Acid|SALICYLIC ACID (MART.)|SALICYLIC ACID USP-RS|Acid| o-Hydroxybenzoic|SALICYLIC ACID (EP IMPURITY)|SALICYLIC ACID (EP MONOGRAPH)|SALICYLIC ACID USP MONOGRAPH|CAS-69-72-7|LAMIVUDINE IMPURITY C (EP IMPURITY)|MESALAZINE IMPURITY H (EP IMPURITY)|NSC629474|phenol derivative| 7|Salicylic acid (TN)|SULFASALAZINE IMPURITY H EP IMPURITY|ACETYLSALICYLIC ACID IMPURITY C (EP IMPURITY)|Aftaseptic|Azurechelin|Klearactil|Neutrogena|Quitacallos|Trulyclear|Acneclir|Acneworx|Acnisal|Bioarpil|Blemfree|Dermoneen|Jinhancho|Kingskin|Mediplast|Noxzema|Nusaderm|pHisoderm|Psoracare|Salicylic acid (6CI|8CI)|Stridex|StridexMaximum|Veraciti|Verruguin|Virasal|Acneen|ClearSynergy|salicylic gel|salicylic-acid|Salvax|StrataClear|ApotheCare|Biore|Blackhead scrub|CornStick|Neora|Salex|Scalp|Toner|WartStick|Zapne|BioSebMousse|Blemish serum|GlyCylic|RayaSal|SaliSkin|StridexEssential|StridexSensitive|YourGoodSkin|Acne Cleansing|Acne Reparatif|BioSeb|Callus Removers|Cleansing Wipes|Clearasil Ultra|Clearing Tonic|Daily Cleansing|Dermaclear Mask|Dermaclear Pads|Facial Cleanser|Hasol Intensive|Medicated Wash|Narasoo Healing|Preparing Tonic|Prosoria Scalp|Psoriasis Cream|SaliCo|Salicylic Acide|Acnezzol Base|Ala-septic|Anti Dandruff|Balancing Act|Clearprep Fx|Corn Removers|Equate Beauty|Glycare Acne|Paulas Choice|Quick Action|Scalp Revival|Scantily Pad|SeboRaserShampoo|Soft Services|Wart Removers|Anti-acne|Acne Cream|Acne Drying|Acne Prone|Acne Scrub|Acne Toner|Acne Wipes|Body Spray|Broda Acne|Clarifying Toner|Clear Skin|Dandruff Shampoo|Dermaclear Serum|Dial AcneAcne|Foaming Cleanser|Liva Clean|SaliSkin Wash|Spot Check|clear days ahead|Roothouse EnCore|Acne Wash|Acni Spot|Bensal Hp|Body Wash|Obeo Hair|Solva-Ker|Ultrasal-ER|Angryhead Premium|Blemish Vanishing|Bye-Bye Pimples|Clear Acne Body|Nixoderm Unguento|Nizoral Psoriasis|Pro Clear Serum|Skin Rescue Set|Skincoach CLEAN|Spotless Cleanser|Acne Body Wash|ACNE Moisturizer|Acne WashKissable|Broda Acne Spa|Elf Zit Zapper|Let Me Clarify|Peace Out Acne|Pro Clear Foam|Wart Remover set|WartStick Plantar|Acne Shave Cream|Acne Toner Serum|Clear Pore Serum|Clear Up Prep|Cvs Scalp Relief|Gel Corn Remover|Perfect Me Serum|Salicylic acid rs|Wart Remover Gel|Atrix System 1|Clearing Mattifier|Dhs Sal|Itch No More|Overnight Clearing|purity made simple|Yat Tip Xiao|Acne Relief Cream|AntiDandruffShampoo|Cln Acne Cleanser|Foaming acne scrub|NAS Toner|Oily Sk Cleansing|Salicylic acid gel|Solv X|Wart Remover Pads|Yat Tip Tor|Evening Moisturizer|Kenkoderm Psoriasis|Acne Face Cleanser|Acne Treatment Gel|All Acne Treatment|Asepxia Acne Wipes|Assured Acne Cream|Clear Up Cleansing|Clearing Skin Wash|DayTime Moisturizer|Gel Callus Remover|Narasoo Hair Tonic|OKAY Body Wash|OKAY Facial Wash|Ouai Anti-Dandruff|Skin Clearify Mask|WartrolWart Remover|Hope In A Bottle|AHA\/BHA Swipes|HairSanity Step 2|MG217 Psoriasis|Salic-2|2% Salicylic acid|3 in 1 Cleanser|Acne Cleansing Pads|Acne TonerBiolements|Acne Treatment Pads|Blemish Control Bar|Body Acne Treatment|Charcoal Acne Scrub|Clear Cell Cleanser|Exfoliating Cleanser|Four Season Essence|hydroxy-benzoic acid|Liquid Wart Remover|Medicated Acne Pads|Miracle Rash Repair|NatriaAcne Treatment|OKAY Facial Scrub|OKAY Facial Serum|OKAY Facial Toner|OXY Cleansing Pads|Purifying Clay Mask|Salicylic Acid Swab|Salicylic Acid Wash|ScalpCV68|Skin Renewing Cream|St. Ives|Therapeutic Hydrogel|Wart Remover Liquid|Keralyt3 PERCENT|PCA Gel|Salicylic Acid 2%|Salisylic Acid 1%|CMC_13852|Daily Face WashCVS|Fostex (Salt\/Mix)|Pernox (Salt\/Mix)|Spot On Acne Patch|Up and UpAcne Wash|Acne Cleansing Wipes|Antiac Acne Clearing|Atrix Acne Treatment|Creamy Foam Cleanser|Damoae Therapy Tonic|Duofilm Wart Remover|Foaming CleanserJafra|Mattifying TonicJafra|MOSCO|NeovaBreakout Control|NoxzemaANTIBLEMISH|Plantar Wart Remover|Salicylic Acid Cream|Salicylic Acid Serum|Shiseido Ibuki Multi|SOMXL|SORARESAL|WARTICIDE|XALIX|Nusaderm MEDICATED|Phenol-2-carboxylate|Anti-blemish Cleanser|Dry Skin Relief Bar|Duofilm (Salt\/Mix)|Oily Sk Balancing I|RE-fresh Scalp Care|Salicylic Acid|(S)|Sebulex (Salt\/Mix)|Acne Care Moisturizer|Acne Clarifying Cream|Better BraidsMedicated|Clearasil Daily Clear|Equate Cleansing Pads|GMC MEDICAL Acne|Healthy Skin Cleanser|Home Health Psoriasis|Liquid Callus Remover|Medicated Acne Shower|Pharma Clear Cleanser|Sebum Clearing Masque|Ultra Clear Treatment|Zitlox Salicylic Acne|0.5%Salicylic Acid|Acne treatment daytime|Aspire Treat So Deep|Deep Pore Acne Scrub|Domerine (Salt\/Mix)|FRONTMAN FADE|LEAHUE MADHUCA|Nu Skin Clear Action|Peace Out Acne Serum|SALICLYLIC ACID|SALICYLIC WASH|Sebucare (Salt\/Mix)|UFORIC Wart Remover|Viper Acne Body Wash|Wart Remover Gel Pen|2-Hydroxybenzoate| I|Anti-blemish Concealer|BHA CLEANSER|DG BODYTONIC|ORIPAN GOLD|Acne Shave Moisturizer|Acne Topical Treatment|Acne-Pimple Medication|AsepxiaFacial cleansing|Atrix Clarifying Toner|Dandruff Reliefdaylogic|Denorex Extra Strength|Dermala Acne Treatment|Drs. ACNE CLEAR|Epionce Purifying Wash|Glytone Acne Treatment|Medicated Corn Remover|Medicated Wart Remover|Neutrogena Rapid Clear|Pacifica Bacne Warrior|Psoriasis Relief Cream|Salicylic Acid Reagent|Skin Clearify Cleanser|STOP SPOT|Thatzit Acne Treatment|Treatonic Wart Remover|Verrustat Wart Remover|Walgreens Corn Remover|Aspire Scrub So Clean|Derma Pella Acne Care|MARK.Break Out Plan|One Step Corn Remover|One Step Wart Remover|Resurfacing acne swipes|RETINOL CLEARING|Wart Remover Gel Tube|Acne Advanced Cleansing|Arctiva Psoriasis Cream|BUTT AND THIGHS|Cure-aid Corn Plasters|Cvs Psoriasis Medicated|Dr. Pelo Scalp Tonic|Ephiderm Spot Treatment|FOSFOSAL_met005|Gly-Sal 2-2 Pads|Medicated Apricot Scrub|Meijer Foaming Cleanser|Moderate Acne Treatment|salicylic acid 2% gel|Salicylic Acid Cleanser|Spectrum_000948|START SO FRESH|Stridex Naturally Clear|WARTRIN Wart Remover|Acne Control Body Wash|Acne Defense Face Wash|Acne Fighting Spot Gel|Acne Lab Foam Cleanser|Acne Warrior Body Wash|AGE Bright Spot Fader|Asepxia Scrub Acne Bar|Clear Gel Corn Remover|Dr. Karrs Acne-statin|ID ANTI ACNE|NeoraComplexion Clearing|Nuvileo Acne Face Wash|Proactiv Acne Body Bar|STRIDEXNaturally Clear|ANABIOSE PURIHEAL|Salicylic Acid (1%)|Salicylic Acid 0.5%|Salicylic Acid 3.0%|Salicylic Acid 5.9%|SINSIN CORN BAND|ZENOTRI Scalp Essence|Acne and Blemish Target|ClearasilUltra 5 in 1|Corn and Callus Remover|CYTOKINE 8|Even and Clear Cleanser|Micropoint for Blemishes|Opera_ID_582|reagent grade|99.5%|SA Acne Spot Treatment|SuffusionSA Ear Cleaner|WARTOVIR Wart Remover|Acne Clarifying Cleanser|Acne Correcting Cleanser|Acne Warrior Body Scrub|Amazon Basics Acne Wash|Anti acne cotton tablets|Atopalm Acne Controlling|Atrix Antibacterial Wash|Blackhead Cleaning Scrub|Cvs Acne Spot Treatment|Deep Cleaning Astringent|DermaClear BHA Cleanser|Dermatouch Acnecare Pads|Dhc Salicylic Acne Wash|Medibac Clearing Complex|Nexiclear Acne Treatment|Pharma Clear Moisturizer|Proactiv Acne Body Wash|Sebobalance Spot Control|Thera Wise Natural Acne|BioreCharcoal Acne Scrub|CLEAN GETAWAY BAG|DHS SAL4 oz.|Dr. Lift Acne Cleanser|Dr. Pelo Scalp-Shampoo|Dr.zium All Clear Spot|GM COLLIN PURACNE|LaboFlex Acne Spot Care|OCTISALATE_met005|ORIPAN GOLD 80g|Ac Out Spot Stop Serum|DONT BE SHY ACNE|Peace Out Acne Day Dot|Salicylic acid 0.19%|Acne Clear Body Cleanser|Acne Solutions Clarifying|Acne Wash Daily Cleanser|Activ O2 Acne Treatment|Active Clear Facial Wash|AMINO EX500mL|Asepxia Neutral Acne Bar|Aspire Cleanser So Fresh|Callus Removal Foot Pack|CeraSootheSA Ear Cleaner|Clarifying Pressed Powder|Clear Acne Face Cleanser|Clear Away Wart Removers|Cvs Clarifying Body Wash|Egg micro needle soothing|Enfuselle Acne Clarifying|Eradikate Mattifying Acne|In the Clear Acne Serum|Liquid Wart Corn Remover|Liquid Wart Remover Mask|Medicated Callus Removers|Neutralyze Clearing Serum|Proactiv Clarifying Night|Psoriasis Treatment Cream|Salicylic acid ACS grade|Skin Clearify Moisturizer|Stay Pure Acne Treatment|Terrasil Wart RemovalMAX|Ultimate Daily Face Wash|Ultra Thin Corn Removers|28.5% Salicylic Acid|CBDMEDIC Acne Treatment|ID CLARIFYING BODY|PAPIS CREAMS Psoriasis|Paulas ChoiceAnti-Redness|PsoCleerAdvanced Psoriasis|WLN: QVR BQ|Anti-blemish Matte Primer|Salicylic Acid 6 Percent|Asepxia Charcoal Acne Bar|BiorePore Unclogging Scrub|Bodewell Psoriasis Calming|Carahen hair-loss recovery|Clear Acne Spot Treatment|Clear Corn Remover Strips|Clear Wart Remover Strips|Cvs Pore Unclogging Scrub|Exuviance Daily Acne Peel|InstaNatural Acne Cleanser|Killa Acne Extra Strength|Micro Exfoliating Cleanser|PREP Everyday Clear Acne|Resurfacing Treatment Pads|Samsali Wart Remover Pads|Skin Restoring Acne Serum|Skinlycious Glow Exfoliant|Soft ServicesClearing Mist|ThatZit Acne TreatmentMAX|Verucide Physician Formula|Zapzyt Acne Wash Cleanser|2-Hydroxybenzenecarboxylate|ACNE TREATMENTMEIJER|CLARIFYING TONER2%|Compound W One Step Pads|DIOXYBENZONE_met003|NATUREPLEX PSORIASIS|RENEWALANTI-DANDRUFF|SANNUO WART REMOVER|Acne Control Apricot Scrub|Acne Fighting Putty Primer|AGE Bright Clearing Serum|Asepxia Softening Acne Bar|Basic Essentials Astringent|Blemish Control Basics Kit|bmse000252|Bodewell Psoriasis Soothing|C6H4(OH)COOH|Clear Reflection Complexion|Epitope ID:124929|Evenly Plus Psoriasis care|Extra Thick Callus Remover|Granex Foam Acne Treatment|Hair Green Mugungjin Tonic|HYR Facial and Body Acne|Incredibly Clear Acne Spot|Leader Therapeutic Dandruff|Oily Sk Specific Solutions|OXY 3 in 1 Acne Pads|Personal Care Acne Control|Retarder SAX (Salt\/Mix)|UPCMLD-DP126|Walgreens Acne Control Gel|YourGoodSkinAnti-Acne Base|BioelementsActive Astringent|BioelementsSpotless Cleanser|CLEAN FOLLICLE TONIC|Compound WLiquid-First Aid|DermarestPsoriasis Medicated|Emergency Zit TreatmentAcne|EQUATE ANTI DANDRUFF|LEAHUE MADHUCA TONIC|One-Step Wart Remover Tan|RITE AID RENEWALACNE|Salicylic acid cotton sheet|Spotless CleanserBioelements|Up and UpDeep Clean Toner|Asd 3-IN-1|Kleer-plex Penetrating Acne|NUTRIXYLANTI-DANDRUFF|SCHEMBL1967|YourGoodSkinCalming Cleanser|Acne Care Charcoal Cleanser|Acne Defense Spot Treatment|Acne Spot TreatmentWalgreens|Anti Acne Calming Corrector|ARCA Regeneration Head Spa|Avalon Organics Antidandruff|BioreDaily Detox Acne Toner|Clear Acne Face Moisturizer|Clear Blemish TreatmentJafra|DermaD Psoriasis Therapeutic|Dermatouch Acnecare Cleanser|Differin Acne Clearing Body|Glytone Acne Clearing Toner|Gold Mountain Beauty Drying|Hydrogel Clear Wart Remover|Meijer Clarifying Body Wash|Multi Vitamin Acne Clearing|PanOxyl Clarifying Exfoliant|Pharma Clear Acne Treatment|Prosoria Psoriasis Treatment|Salicylic Acid Acne Patches|Salicylic Acid Wart Remover|Shaant Hydrating Body Scrub|TonicAcne Clearing Treatment|TRIDERMA Psoriasis Control|Xtracare Dandruff Hair Wash|365 Anti Dandruff Shampoo|ADVANCED ACNE THERAPY|bhs beautiful hair and scalp|DR. IASO AC BOOSTER|KROGERDAILY FACE WASH|NAS Targeted Spot Treatment|Neutrogena T\/sal Therapeutic|Puripatch for Acne Treatment|SALICYLIC ACID MI|X OUT CLEANSING BODY|Acne Control Acne Body Wash|Actiogen Acne Dots Treatment|Advanced Acne Spot Treatment|Angryhead Premium Hair Tonic|AntiDandruffShampooConditioner|Asepxia Liquid Acne Cleanser|Bosye Benefiting Hair Lotion|Clear-N-Smooth Anti-Blemish|Clearasil Ultra Rapid Action|Cvs Triple Action Astringent|Dermesse Pad Treatment 0.5|Dr Deep Acpa Cleansing Foam|Dr. Pelo Scalp Tonic Sheet|Get-Back-Targeted Body Acne|Get-Gone-Acne Body Cleanser|Iaso Intensive Clear Booster|M Skin Care Blemish Patches|Nuvileo Skin Perfecting Acne|One Step Clear Wart Remover|One-Step Corn Remover Clear|One-step Wart Remover Clear|Oprea1_040343|Peace Out Acne Hero Routine|Pharmaskincare Acnecare Toner|Proactiv Blackhead Dissolving|Proactiv Deep Cleansing Wash|Rejuvaderm Medispa Acne Back|Rida Hair Research Institute|Skin Clearify Spot Treatment|Ultra Clear Foaming Cleanser|Walgreens Foaming Acne Scrub|Wart Remover Medicated Discs|Zernel Scalp Rejuver Essence|AftasepticInstant Pain Relief|CLARIFYING LIQUID PEEL|Clear Acne BodyPaulas Choice|Clearasil UltraOvernight Face|Cocokind probiotic acne serum|KBioSS_001428|Killa Extra Strength 2 pack|NAS PURIFYING CLEANSER|Salicylacne-1% Clearing Gel|SALICYLIC ACID JAN|SINSINPAS CORN REMOVER|Acne Blu Salicylic Acid Pads|Acne Defense Foaming Cleanser|Age Defying Blemish Treatment|Blemish Clearing Facial Wipes|Clarity Clear Skin Essentials|Clear Medicated Corn removers|Cvs Daily Pore Clearing Pads|Kleer-plex Targeted Acne Pen|no zit sherlock acnecorrecting|One Step Wart Remover Strips|OXY Volcanic Clay Acne Wash|Salicylic Acid Acne Treatment|Salicylic Acid Pimple Patches|Salicylic Acid Spot Treatment|Salicylic Face and Body Wash|Thayers Blemish Clearing Balm|Verruguin Liquid Wart Remover|BIDD:ER0602|ClearasilUltra Blackhead Scrub|CLENZIDERM PORE THERAPY|DivK1c_000301|RHODD ACNE BODY SO AP|Salicylic acid (JP17\/USP)|SALICYLIC ACID HSDB|Acne Advanced Treatment System|Acne Deep Pore Cleansing Wash|ACNE solutions liquid MAKEUP|Blemish Control Blotting Paper|Breakout Clearing Foaming Wash|Cvs Daily Acne Clearing Scrub|Deep Pore Charcoal Acne scrub|DermaClear BHA Spot Treatment|Elf Conceler Pencil and Brush|Glytone Acne Clearing Cleanser|hair-loss recovery shampooblock|Liquid Wart Corn Removal Mask|Medicated Plantar Wart Remover|NoxzemaAntiBlemish Daily Scrub|OXY Deep Pore Cleansing Pads|OXY Volcanic Ash Detox Scrub|Paulas Choice Clear Body Acne|Proactiv Clear Zone Body Pads|REVITEALIZEANTI DANDRUFF|Satos Corn and Callus Remover|TXL Active Wart Remover Pads|Vircin Advanced Wart Treatment|WALGREENSPINK GRAPEFRUIT|Acne TonerAcne Clearing System|AUROCIN CERADERMEar Cleaner|Clearasil UltraDaily Face Wash|Confiche Anti-Hair LossShampoo|DermaD ANTI-ITCH Therapeutic|DermaD JOCK ITCH Therapeutic|Dermatouch Acnecare Moisturizer|DUAL EFFECTS MOISTURIZER|Molluscum Contagiosum Treatment|NAS PORE REFINING SCRUB|Natural Peeling TriActive Acne|OxyTotal Care Vitamin C Serum|Psoriasis Medicated Moisturizer|Salicylacne-2% Clearing Serum|TRIDERMA Acne Gel Face Wash|UNBLEMISH Refining Acne Wash|Acne Advanced Clarifying Masque|Acne Treatment Maximum Strength|all clear exfoliating face wash|Anti Acne Clarifying Face Wash|Cetaphil Acne Relief Body Wash|CLINIQUECLARIFYING MAKEUP|Complexion Clear Acne Treatment|Corn and Callus Liquid Remover|Corn and Callus Remover Liquid|DermaD ANTIFUNGAL Therapeutic|Equate Corn and Callus Remover|FEMA3985|GTPL4306|Keranique Anti Dandruff Shampoo|Kroger Dual Effects Moisturizer|Liquid Corn and Callus Remover|Meijer Blackhead Clearing Scrub|Meoly Liquid Wart Corn Remover|Miss Spa Clear Blemish Patches|no zit sherlock acneoil control|Psoriapalm Non-greasy Psoriasis|REFINEComplexion Clearing Pads|SGCUT00012|SLMD Salicylic Acid Body Wash|Soothion Acne Treatment Formula|Stridex Conditioning Acne Scrub|Stridex XL Face and Body Pads|The INKEY List C 50 Serum|Yes To Tomatoes Two-Step Nose|Better Braids MedicatedMedicated|BREAKOUT CLEARING BOOSTER|ERADIKATE CLARIFYING ACNE|Kenkoderm Psoriasis Moisturizing|PediQuick OneStep Wart Removers|PUR 4-in-1 Correcting Primer|PURE NERIUM ACNE THERAPY|Salicylic acid| >=99%| FG|Salicylic acid| LR| >=99%|SALICYLIC SERUM1 PERCENT|Acne Control Clarifying Cleanser|Acne Fighting Foundation Caramel|Acne Warrior Clearing Astringent|Aveeno Clear Complexion Cleanser|B-Lucid Targeted Body Acne Gel|Clear Future Deep Pore Cleanser|Clear Smart Clear Pore Hydrator|component of Tinver (Salt\/Mix)|Dermatouch Acnecare Facial Scrub|Dry It Out Acne Spot Treatment|Equate Acne Treatment Body Pads|EVERY MAN JACK FACE WASH|HAIRCARE Physicians Recommended|Neutrogena Body Clear Body Wash|No7 Laboratories Acne Treatment|OXY Cleansing PadsDaily Defense|Pacifica Acne Warrior Body Wash|Ped X Corn Removers| Medicated|Phace Bioactive Clarifying Serum|Puriface Hydrogel Cleansing Foam|SALICYLIC ACID WHO-DD|SIMPLY VITAL Acne Face Cream|UPCMLD-DP126:001|Verrustat Medicated Plantar Pads|Acne Cleanser W\/ Salicylic Acid|Acne Patches with Salicylic Acid|all clear face wash acne control|Alumier MD Acne Balancing Serum|BDBM26193|component of Keralyt (Salt\/Mix)|EXFO TONIC ACNE TREATMENT|Family DollarOil Free Acne Wash|INNBEAUTY PROJECT Acne Serum|Inward Agas ACue Cleansing Foam|iShanCare Psoriasis Relief Cream|KBio1_000301|KBio2_001428|KBio2_003996|KBio2_006564|Pedi-quick Onestep Corn Removers|Wart Remover with Salicylic Acid|Acne Advanced Clarifying Hydrator|AMINO EX HAIR TONIC500mL|Asepxia BB Liquid Acne Treatment|AVEDA SCALP REMEDY DADRUFF|Breakout Clearing All Over Toner|Cantu Guava Ginger Anti Dandruff|Charcoal Blackhead Clearing Scrub|Clear Cell Medicated Acne Masque|Clear Future Corrective Treatment|Clear Future Mattifying Treatment|Clear Skin Days Clarifying Serum|ClearasilUltra Rapid Action Scrub|Cvs Fast Clearing Medicated Pads|Deep cleansing foaming acne scrub|DR. SCALP SPICULE COMPLEX|E9A559BE-383B-4F83-BC02-3031D03D558A|ERADIKATE ACNE MARK FADING|Family Care Ultra Acne Treatment|LMNOOP Psoriasis Treatment Cream|LOOK AT ME INVISIBLE ACNE|Natures Cure Body Acne Treatment|NELLY DEVUYST MASK BIOACNE|Neutrogena Acne Proofing cleanser|Neutrogena Body Clear Body Scrub|Oribe Serene Scalp Anti Dandruff|Pharmaskincare Acnecare Exfoliator|Phisoderm Anti Blemish Body Wash|Proactiv Plus Retexturizing Toner|SALICYLICUM ACIDUM HPUS|Seacret Active Clear Facial Wash|Shaant Pore Purifying Face Scrub|Smart Release Mandelic8 PERCENT|Spot Stopper Acne Spot Treatment|Xtracare Deep Cleaning Astringent|Acne Control Clarifying Body Spry|Acne Control Superclean Body Wash|ACNE SPOT TREATMENT2% BHA|Blemish Bully Acne Spot Treatment|Callicide Corn and Callus Remover|Clear Proof Blemish Control Toner|ClearSkinDays Acne Clearing Drops|Elf Buff Acne Fighting Foundation|Elf Sand Acne Fighting Foundation|Equate One Step Corn Remover Pad|NINDS_000301|OXY Volcanic Ash Acne Face Wash|Ped X Callus Removers| Medicated|Super Spot Remover Acne Treatment|Up and UpDual Effects Moisturizer|Well At Walgreens Pink Grapefruit|Witch Hazel Pore Clarifying Toner|Yes To Tomatoes Daily Pore Scrub|BioreBlemish Fighting Ice Cleanser|Clearasil UltraAcne Clearing Scrub|DR.Luke Liquid Wart Remover Mask|Family WellnessLiquid Wart Remover|frisco CARE Advanced Ear Cleanser|HMS2233A10|HMS3373M19|HMS3885B08|Home Health Everclean Antidandruff|KUC106694N|MSM SCALP ESSENCE SIGNATURE|NATURAL PURE BALANCING HAIR|NELLY DEVUYST SERUM BIOACNE|Peace Out Acne Day and Night Duo|PHARMA CLEAR SPOT TREATMENT|Salicylic acid| p.a.| 99.0%|YourGoodSkinActive Treatment Tonic|YourGoodSkinRapid Rescue Treatment|ACNE SOLUTIONSCLEANSING FOAM|Bath And BeautyCharcoal Acne Scrub|Benzoic acid| 2-hydroxy- (9CI)|CANAFARMA Spot On Acne Treatment|caring mill Acne Control Body Wash|caring mill One-Step Corn Removers|Celladix Acne Control Gel Cleanser|Clear Skin Days Spot Eraser Stick|Clear Smart Blemish Spot Treatment|Clear Smart Clear Complexion Toner|DR JOE LAB CLARIFYING TONER|Elf Beige Acne Fighting Foundation|Glytone Acne Self-Foaming Cleanser|Rush Salicylc Acid Complexion Pads|Skin Medica Purifying Foaming Wash|Smooth Frizz Anti-dandruff Shampoo|TAKE CONTROL CALMINGCLEANSER|Walgreens Medicated Callus Removers|BCP09067|Clearcalm Non-Drying Acne Treatment|ClearskinBlemish Clearing Acne Pads|Cover and Conceal Blemish Concealer|Curl Moisture Anti-dandruff Shampoo|CVS HealthAcne Fighting Moisturizer|Damage Repair Anti-dandruff Shampoo|Dollar General Acne Spot Medication|Good Neighbor Pharmacy Scalp Relief|HY-B0167|Mizon Acence Blemish Out Pink Spot|Neutrogena SkinClearing Mineral-Tan|OKAY Blemish Control Apricot Scrub|Phisoderm Anti-blemish Gel Cleanser|SALICYLIC ACID GREEN BOOK|Scalp Hydrate Anti-dandruff Shampoo|to_000004|Yes To Tomatoes Acne Fighting Mist|ALMAY CLEAR COMPLEXION MAKEUP|Alumier MD Acne Clarifying Cleanser|BioreCharcoal Acne Clearing Cleanser|BUTT AND THIGHSACNE TREATMENT|CLARIFAST One Step Acne Treatment|Clearasil UltraAcne Plus Marks Spot|ClearasilUltra Acne Plus Marks Pads|CVS Health Blackhead Clearing Scrub|Dr. Groot Anti-dandruff Scalp Care|Lamivudine impurity| salicylic acid-|Neutrogena Acne Proofing daily scrub|Oars and Alps Purifying Scalp Scrub|OXY Overnight Acne Reducing Patches|SIGNATURE CARE ACNE TREATMENT|Tox21_113453|Tox21_201471|Tox21_303109|YourGoodSkinBlackhead Clearing Scrub|Acne Control Body Hand and Face Bar|Almay Clear Complexion Blemish Armor|Almay Clear Complexion Liquid Makeup|Anti Acne Exfoliating Cleansing Pads|AXE Acne Control 2% Salicylic Acid|Breakout Clearing Overnight Treatment|Carahen scalp revitalizing serum mist|Clear Cell Salicylic Clarifying Pads|Clear Proof Clarifying Cleansing Gel|Clear Smart Charcoal Blackhead Scrub|CLIXIT ACNE CONTROL BODY WASH|Compound W for Kids One Step Strips|Derma Pella Acne Wash for Oily Skin|e.l.f Skin Acne-Treating Body Mist|Elf Caramel Acne Fighting Foundation|Exfoliating and Clarifying Face Wash|Good Molecules Acne Foaming Cleanser|Hero Pore Release Blackhead Clearing|KROGER CLARIFY CARE ACNE WASH|Maetria Miracle Recipe PremiumShampoo|Maximum Strength Wart Remover Strips|Mother Dirt Dailywith Salicylic Acid|OxyTotal Care Creamy Facial Cleanser|Pedi-Quick One Step Callus Removers|Phisoderm Clear Confidence Body Wash|Rapid Action Daily Face WashDaylogic|Riversol Comprehensive Acne Treatment|s4539|STK258681|Tiege Hanley Daily Moisturizing Acne|2-HYDROXYBENZOIC ACID FHFI|ACNE AND LINE CORRECTING SERUM|Acne CleanserAwaken by Quality Choice|AF Foam Sensitive Acne Pore Cleanser|Almay Clear Complexion Pressed Powder|Amazon Basics Acne WashAcne treatment|CelestyAcne Series Deep Cleansing Gel|Clear Future Intensive Spot Treatment|Clear Smart Clarifying Cleansing Foam|Clearasil Rapid Rescue Body Treatment|Clearasil Ultra Rapid ActionFace Wash|ClearasilDaily Clear Hydra-Blast Pads|ClearskinProfessional Daily Correcting|Deep Relief Acne (Blemish) Treatment|Defense Acne Care 2% Salicylic Acid|Glovers Medicated Anti-Dandruff Scalp|Kleer-plex Advanced Acne Care System|Maybelline Dream Pure Bb Beauty Balm|Medicated Callus Removers Extra Thick|NELLY DEVUYST pH TONER BIOACNE|Neutrogena Rapid Clear Treatment Pads|PCA SKIN Intensive Clarity Treatment|Personal CAREdeep cleaning Astringent|Phisoderm Clear Confidence Face Scrub|Proactiv Clean Acne Clearing Hydrator|Proactiv Extra Strength Formula Toner|Quita Callos Corn and Callus Remover|RENARDBLANC ACNE CLEANSING BAR|Solutions Acne Control Spot Treatment|Acne Relief Maximum Strength Spot Gel|AKOS000118979|CLARIFYBOTANICAL CLARIFYING WASH|Clear Skin Days Brightening Peel Pads|Clear-N-Smooth Acne-Pimple Medication|Clearasil Rapidly Clear Acne Solutions|ClearskinBlackhead Eliminating Cleanser|Clinique Acne Solutions Cleansing Foam|Dr Throwers Oily Skin Facial Cleanser|DuSel Psoriasis Dead Sea Salt Therapy|Elf Blemish Control Face Primer Clear|Elf Clear Blemish Control Face Primer|Elf Porcelain Acne Fighting Foundation|Full and Strong Anti-dandruff Shampoo|glo SKIN BEAUTY Clear Skin Cleanser|Glytone Acne Back and Chest Treatment|Isomers Clear Skin Acne Treatment Gel|mark. save the dayAnti-Acne Concealer|MD ACNE Customized Hydrating Cleanser|Meijer Foaming CleanserAcne medication|Natural Acne Solutions 3 Step Regimen|NELLY DEVUYST CLEANSING BIOACNE|NELLY DEVUYST PURIFYING BIOACNE|One Step Clear Medicated Corn Remover|Salicylic acid| BioXtra| >=99.0%|Skin Perfecting Acne and Blemish Wash|Smooth Frizz Anti-dandruff Conditioner|Universal Glow Daily Defense SPF 40|Well at Walgreens Spot Acne Treatment|ageLOC LumiSpa Treatment Cleanser Acne|ALMAY CLEAR COMPLEXION CONCEALER|CCG-212792|Clean and Clear Blackhead Eraser Scrub|Clear Exfoliating SolutionPaulas Choice|ClearasilUltra Rapid Action Daily Wash|Clearskin Pore PenetratingCooling Toner|ClearSkinDays Overnight Dual Correcting|Compound W One Step Plantar Foot Pads|Curl Moisture Anti-dandruff Conditioner|CVS Clarifying Body WashAcne Treatment|Damage Repair Anti-dandruff Conditioner|DB00936|DermaD ATOPIC DERMATITIS Therapeutic|Isomers Clear Skin Acne Spot Treatment|Lqd ACNE BLEMISH TREATMENT control|NAS MAX STRENGTH SPOT TREATMENT|PB48023|Pureskin Liquid Wart Corn Removal Mask|Scalp Hydrate Anti-dandruff Conditioner|Selsun Blue Naturals Itchy| Dry Scalp|So Fresh So Clean Mild Acne Treatment|ST. Ives Blemish and Blackhead Facial|THE BETTER SKIN CO.ZIT NO MORE|Vibrant Color Anti-dandruff Conditioner|WELL AT WALGREENSPINK GRAPEFRUIT|Yes To Tomatoes Daily Repair Treatment|ZITALON Wart Removal Treatment Liquid|Acne Defense Spot TreatmentMerle Norman|Avalon Organics Antidandruff Conditioner|BLEMISH CORRECTING SERUMSENSITIVE|Botanic Skincare Acne Defense Treatment|Clean and Clear Dual Action Moisturizer|Clearasil Daily ClearDaily Facial Scrub|ClearasilUltra 5 in 1 Exfoliating Wash|ClearskinBlemish Clearing Spot Treatment|Dr Throwers Oily Skin Facial Astringent|Dr. C. Tuna Acne Pore Purifying Toner|ERADIKATE CLARIFYING ACNECLEANSER|Grahams Natural Psoriasis and Dermatitis|HyVee Blemish Controlling Apricot Scrub|IDI1_000301|JUMISO No pain No gain AC CURE spot|KEEP IT CLEAR ACNE FOAM CLEANSER|L BRI Pure n Natural Deep Clean Toner|M Skin Care Microneedle Blemish Patches|Natural Acne Solutions Clarifying Toner|Neutrogena Stubborn Body Acne Treatment|PACIFICA ACNE WARRIOR BODY SCRUB|ReVive Acne Reparatif AcneTreatment Gel|Sensitive Skin Deep Cleaning Astringent|SMP2_000145|ST. Ives Blemish and Blackhead Control|The INKEY List Salicylic Acid Cleanser|Yes To Tomatoes Roller Ball Spot Stick|ZHANGGUANG 101 HAIR MAX 101B|Acne wash facial cleanser pink grapefruit|Aveeno clear complexion daily moisturizer|Aveeno Clear Complexion Foaming Cleanser|BIOTOP PROFESSIONAL 02 Eco Dandruff|Clean and Clear Essentials Deep Cleaning|ClearasilUltra Acne plus Marks Treatment|Clearskin ProfessionalAcne Mark Treatment|ClearskinBlemish Clearing Acne Body Wash|CVS Health Advanced Acne Spot Treatment|Dr. C. Tuna Acne Blemish Control Serum|Isomers Clear Skin Acne Treatment Lotion|MG217 Psoriasis Therapeutic Conditioner|NCGC00257065-01|NCGC00259022-01|Sea Breeze Actives Clear-pore Astringent|Sea Breeze Actives Deep-clean Astringent|ACIDUM SALICYLICUM WHO-IP LATIN|Acne Defense Foaming CleanserMerle Norman|Acne Treatment Clear Gel-Maximum Strength|ACNE TREATMENT DAILY CLEANSING BAR|Apple Cider Vinegar Anti-dandruff Shampoo|AVEDA OUTER PEACE ACNE RELIEF PADS|Better Braids Medicated Un-BraidMedicated|BioreWitch Hazel Pore Clarifying Cleanser|Bodewell Psoriasis Scalp Relief Treatment|BP-12826|Classic Care Apricot ScrubBlemish Control|Clearasil UltraRapid Action Seal-to-Clear|ClearskinBlemish Clearing Foaming Cleanser|Compound W Total Care Wart and Skin Kit|Dr.Different Scaling Toner for Oily skin|Epielle Exfoliating ScrubExfoliating Scrub|EVERY MAN JACK CHARCOAL FACE SCRUB|First Aid Beauty FAB Acne Spot Treatment|Full and Strong Anti-dandruff Conditioner|Garnier Clean Blackhead Eliminating Scrub|Gold Bond Ultimate Psoriasis Relief Cream|KSC-11-207-4|Medicated Gel Cleanser-2% Salicylic Acid|Meijer Clarifying Body WashAcne Treatment|MU LAB YECO SOLU TION BP Refresh EX|Pharmacys Prescription 8 OZ Acne Control|Salicylic acid & Sulfur Soap (Salt\/Mix)|Salicylic acid| ACS reagent| >=99.0%|Salicylic acid| plant cell culture tested|Salicylic acid| ReagentPlus(R)| >=99%|Scholls Wellness Company LLCCorn Removers|Sebobalance Purifying Sebo-absorbing Mask|SkinCeuticals Silymarin CF Acne Treatment|sugar rush no bullzit acne spot treatment|SUPERSMOOTH ACNE CLEAR 5 MIN MASK|Terrasil Psoriasis TherapyMaximum Strength|TS-03583|Visco-gel Medicated Round Callus Removers|amazon basics acne blackhead clearing scrub|Bleackhead removing Medicated scrubDaylogic|CLARIFYING TONER SALICYLIC ACID 1%|Clearasil Active Lightweight Face and Body|Clearasil Rapid Rescue Deep Treatment Pads|Clearasil UltraAcne Plus Marks Daily Scrub|Clinical Emergency Zit StickAcne Treatment|DermarestPsoriasis Medicated Skin Treatment|DermazorPsoriasis and Seborrheic Dermatitis|Dg Deep Cleaning Astringent Sensitive Skin|EVEN BETTER CLINICAL ACNE SOLUTIONS|Fresh Detox 2 IN 1 Anti-dandruff Shampoo|La Roche Posay Effaclar Medicated Cleanser|Miss Spa Banish Microneedle Spot Treatment|NELLY DEVUYST MICELLAR FOAM BIOACNE|Neutrogena SkinClearing Mineral-Soft Beige|Neutrogena Stubborn Blackheads Daily Serum|Neutrogena Stubborn Texture Daily Cleanser|Nu Skin Clear ActionAcne Medication Toner|OFFECTS TE-PADS ACNE PORE TREATMENT|OKAY Nourishing Peppermint Scrub and Mask|pHisodermCLEAN ANTI-BLEMISH BODY WASH|Pink Grapefruit Foaming Acne Scrubdaylogic|PsoriasinTherapeutic Shampoo and Body Wash|Rite Aid Acne Pads| Daily Cleansing Pads|Salicylic Acid 1.0 mg\/ml in Acetonitrile|SBI-0051510.P003|SO TOTALLY CLEAN DEEP PORE CLEANSER|TULA acne clearing and tone correcting gel|Up and UpBlemish Controlling Apricot Scrub|Witch Hazel Moisture Anti-Dandruff Shampoo|Yes To Tomatoes Acne Control Gel Cleanser|Yes To Tomatoes Detoxifying Spot Treatment|111MedCo 2% Salicylic Acid Cleansing Bar|Apple Cider Vinegar Anti-dandruff Leave-In|Apple Cider Vinegar Anti-dandruff Pre-Wash|As I AmDry and Itchy Scalp Care Treatment|BACK-UP PLAN ACNE-CONTROL BODY MIST|BELEI OILFREE FACIAL CLEANSING WIPES|CANAFARMA Spot On Acne Treatment Cleanser|Clarity Clear Skin EssentialsAcne treatment|Clearasil Rapid Rescue Deep Treatment Scrub|ClearskinClear Emergency Intensive Treatment|CLENZIDERM PORE THERAPYACNE TREATMENT|DB-266725|Dial Acne Control Deep Cleansing Body Wash|Dr Young AC CONTROL U line Clearing Mist|First Aid Beauty Anti-Dandruff Scalp Serum|Keep the Peace Acne-Calming Cream Cleanser|mark. back up planAnti-Acne Back Treatment|no zit sherlock acnepurifying cleanser toner|Soft Services CLEARING Mist Breakout Tonic|TRIDERMA PSORIASIS CONTROL BODY WASH|WALGREENS ALL PURPOSE PSORIASIS WASH|Walgreens Foaming Acne ScrubPink Grapefruit|Yes To Tomatoes Acne Clearing Facial Toner|ACTIV O2 ACNE TREATMENT CLEANSING BAR|Aveeno Clear Complexion Daily Cleansing Pads|CARIBBEAN BEAUTY-SCALP TREATMENT MASK|Charcoal Acne ScrubHelp clear acne blemishes|Clarity Clear Skin EssentialsFoaming Cleanser|Clear Skin Days Clarifying Cleanser and Mask|Clearasil Gentle Prevention Daily Clean Pads|Clearasil UltraAcne plus Marks Wash and Mask|Clearasil UltraOn-The-Go Rapid Action Wipes|Clearskin Blemish ClearingOvernight Treatment|Clearskin Pore PenetratingBlack Mineral Mask|Clearskin ProfessionalClear Pore Thermal Mask|CLENZIDERM DAILY CARE FOAMING CLEANSER|Dr. C. Tuna Acne Clear Complexion Cleanser|Equate 2% Salicylic acid Acne treatment pad|H0206|H1342|Neutrogena Blackhead Eliminating Daily Scrub|Neutrogena Rapid Clear Acne Eliminating Spot|Neutrogena SkinClearing Mineral-Classic Ivory|Neutrogena SkinClearing Mineral-Natural Beige|Neutrogena SkinClearing Mineral-Natural Ivory|NEXT CELL MEDICALACNE CLEANSING WIPES|NS00010274|Proactiv Plus Complexion Perfecting Hydrator|Salicylic acid| tested according to Ph.Eur.|SkinCeuticals Clarifying Exfoliating Cleanser|TREAT SO DEEP ACNE-FIGHTING TREATMENT|WALGREENS APRICOT SCRUB ACNE TREATMENT|Acne Control Rapid Relief Acne Spot Treatment|Acne Relief Retinol Treatment and Moisturizer|Apple Cider Vinegar Anti-dandruff Conditioner|Blistex Stridex Spot and T-zone Acne Cleargel|Clean and Clear Advantage Acne Spot Treatment|Clearasil Daily ClearOil-Free Daily Face Wash|clearskinclear emergency instant spot treatment|Compound WMaximum Strength Fast Acting Liquid|Compound WMaximum Strength One Step Invisible|Dr Young AC CONTROL AC Out Spot stop Serum|Dr. Sheffield Psoriasis Medicated Moisturizer|EN300-16723|ERADIKATE SALICYLIC ACID ACNE TREATMENT|La Prairie SwitzerlandCellular Blemish Control|Maximum Strength One Step Wart Remover Strips|Meijer Blackhead Clearing ScrubAcne medication|Neutrogena All In 1 Acne Control Daily Scrub|Nutricentials Here You Glow Exfoliating Toner|Ped X Callus Removers| Extra Thick Medicated|Pore Release 2 Salicylic Acid Acne Treatment|REPIEL SMART FOOT PEELING PERFECT CARE|Salicylic acid| SAJ first grade| >=99.0%|Skinlycious Clear Skin Essentials Starter kit|Two Step Jelly Mask-Brightening and Nutrition|Yes To Tomatoes Acne Fighting Spot Treatment|Yes To Tomatoes Detoxifying Charcoal Cleanser|Yes To Tomatoes Detoxifying Charcoal Mud Mask|365 Anti Dandruff Shampoo Conditioner 2 in 1|Acne Control Outsmart Acne Clarifying Treatment|C00805|Cetaphil Gentle Clear Clarifying Acne Cleanser|Cetaphil Gentle Clear Triple-Action Acne Serum|Clear Proof Pore Purifying SerumAcne Medication|Clearasil Daily ClearDaily Pore Cleansing Pads|Clearskin Blackhead EliminatingDaily Astringent|Clearskin ProfessionalDeep Pore Cleansing Scrub|Cover FX Mattifying Primer Plus Acne Treatment|CVS Clarifying Acne Body Wash-Pink Grapefruit|CVS PHARMACYCLEAR SKIN DAILY MOISTURIZER|D00097|D70842|Extra Thick Callus Removers with Salicylic Acid|I DEW CARE FIX MY ZIT ACNE GELTREATMENT|mark. Help WantedAnti-Acne Exfoliating Cleanser|no zit sherlock acnespot treatmentspot treatment|Perricone Acne Relief Gentle Exfoliating Toner|Phisoderm Clear Confidence Daily Gel Face Wash|Salicylic acid| Vetec(TM) reagent grade| 98%|THE BETTER SKIN CO.ZIT NO MORE KLEANSE|Witch Hazel Moisture Anti-Dandruff Conditioner|AB00489876_15|ACNE SOLUTIONSSPOT HEALING ACNE MEDICATION|Antibacterial Medicated Toner-2% Salicylic Acid|BENZOIC ACID|2-HYDROXY   SALICYLIC ACID|BOTANIC HEAL boH Acne Sensitive Fo am Cleanser|CelestyACNE series CLARIFYING TREATMENT PADS|Cetaphil Gentle Clear Mattifying Acne Moisturizer|Clear Proof Blemish Control TonerAcne Medication|Clearasil Stubborn Acne Control 5in1 Daily Pads|clearskinclear emergency intensive cream cleanser|DAILY CARE FOAMING CLEANSERACNE TREATMENT|mark.Get Treatment Anti-Acne Overnight Treatment|Neutrogena Body Clear Body Wash Pink Grapefruit|Neutrogena deep clean purifying cooling gel scrub|Neutrogena SkinClearing Mineral Powder-honey 85|pHisodermCLEAN ANTI-BLEMISH FACIAL CLEANSER|Pimple Correct 2% Salicylic Acid Acne Treatment|Premier Solutions Liquid Corn and Callus Remover|RAF Five-After Hours Salicylic Acid Moisturizing|RAF Five-Wash Away Salicylic Acid Gel Cleanser|Salicylic acid| puriss. p.a.| >=99.0% (T)|SCRUB SO CLEAN ACNE-FIGHTING SUPER SCRUB|TRIDERMA Psoriasis Control Face and Body Cream|TULA Skincare Keep it Clear Acne Foam Cleanser|VANIBISS BUTT and THIGHS Acne Treatment Cream|Yes To Tomatoes Acne Fighting Scrub and Cleanser|Acne Control Superclean Body WashAHA BHA Formula|ACNE RELIEF CALMING TREATMENT AND HYDRATOR|ACNE solutionsCLEANSING BAR FOR FACE AND BODY|Alumier MD HydraSmooth Non-Comedogenic Moisturizer|BANSBAO SKIN BRIGHTENING AND SPOTS-REMOVING|CelestyOil Control Series Mattifying Foam Cleanser|Clean and Clear Advantage Acne Control Moisturizer|Clean and Clear Essentials Deep CleaningAstringent|CLEAR IMPROVEMENT PORE CLEARING MOISTURIZER|Clearasil Stubborn Acne Control 5in1 Weekly Scrub|ClearskinBlackhead Eliminating Deep Treatment Mask|CVS Health Blackhead Clearing ScrubAcne Medication|DAILY CLEANSERSALICYLIC ACID ACNE TREATMENT|Dr. Joe lab ACNE CONTROL CLARIFYING CLEANSER|Maximum Strength Wart Remover With Salicylic Acid|Mediceuticals X-DermaDry Scalp and Hair Treatment|MULTI-ACTION CLEAR-ACNE CLEARING TREATMENT|Neutrogena Scalp Therapy Anti-Dandruff Itchy Scalp|NeutrogenaSkin Clearing Blemish Concealer-Buff 09|NeutrogenaSkin Clearing Blemish Concealer-Deep 20|NeutrogenaSkin Clearing Blemish Concealer-Fair 05|Nu SkinClear Action Acne Medication Day Treatment|OxyDetox Care Invisible Healing Treatment Patches|Q193572|Scholls Wellness Company LLCDuragel Callus Remover|THE INKEY LIST SUCCINIC ACID ACNE TREATMENT|Vichy Laboratoires Normaderm Daily Gentle Cleanser|WALGREENS DAILY REPAIR PSORIASIS MOISTURIZER|WALGREENS FOAMING BODY WASH ACNE TREATMENT|Yes To Tomatoes Detoxifying Charcoal Sleeping Mask|Almay Clear Complexion Liquid Makeup for Oily Skin|AMBI Even and Clear Exfoliating Wash Acne Treatment|Avene Cleanance Acne Medicated Clearing Gel Cleanser|CARBASALATE CALCIUM IMPURITY C EP IMPURITY|Clarisonic Pore and Blemish Cleanser Acne Treatment|Clean and Clear acne triple clear exfoliating scrub|Clear Proof Clarifying Cleansing GelAcne Medication|Clearasil Active Deep Cleansing Face and Body Wash|Clearasil Stubborn Acne Plus Marks One Minute Mask|component of Solarcaine first aid spray (Salt\/Mix)|Foaming acne scrubFor a cleaner| Clearer Complexion|Home Health Psoriasis Medicated Scalp and Body Wash|J-509667|Kiehls Since 1851 Blue Herbal Acne Spot Treatment|NELLY DEVUYST SALICYLIC ACID COMPLEX BIOACNE|Neutrogena Rapid Clear 2 In 1 Fight and Fade Toner|Neutrogena Scalp Therapy Anti-Dandruff Daily Control|Nu Skin Clear ActionAcne Medication Foaming Cleanser|OXYGENETIX OXYGENATING FOUNDATIONACNE CONTROL|Peach and Lily Peaches Slices Acne Exfoliating toner|Scholls Wellness Company LLCDURAGEL CORN REMOVER|SIGNATURE CARE BLEMISH AND BLACKHEAD CONTROL|Soothion Psoriasis and Seborrheic Dermatitis Formula|St. IvesBlemish and Blackhead Control Apricot Scrub|TULA Skincare Breakout Breakthrough Acne Toner Pads|Almay Clear Complexion Blemish Healing Spot Concealer|Apple Cider Vinegar Itch Relief Anti-Dandruff Shampoo|Awaken By Quality Choice Ultra Clean Daily Face Wash|Better Braids Medicated Leave in ConditionerMedicated|Clarity Clear Skin EssentialsDeep-Cleaning Astringent|Clearasil Stubborn Acne Control 5in1 Exfoliating Wash|Clearasil Stubborn Acne Control 5in1 One Minute Mask|First Aid Beauty FAB Pharma BHA Acne Spot Treatment|First Aid Beauty FAB Pharma White Clay Acne Treatment|Hairitage Power Punch Anti-Dandruff Pre-Wash Booster|MARK. BLEMISH BANISHERAnti-Acne Body Treatment Pads|NATUROPATHICA CHILL CHOCOLATE VINE DETOX TONIC|Neutrogena Scalp Therapy Anti-Dandruff Extra Strength|Neutrogena Stubborn Body Acne Cleanser and Exfoliator|PATCHOLOGY BREAKOUT BOX 3-IN-1 ACNE TREATMENT|Peach and Lily Peaches Slices Acne Clarifying Cleanser|Perricone Acne Relief Calming and Soothing Clay Mask|Personal Care Sensitive Skin Deep Cleaning Astringent|Replenix Acne Solutions Gly-Sal 2-2 Foaming Cleanser|Rosemary and Salicylic Acid Acne Clearing Moisturizer|Scholls Wellness Company LLCClear Away Wart Removers|SHISEIDO WASO KOSHIRICE ACNE CALMING TREATMENT|Skinceuticals Blemish Plus Age Defense Acne Treatment|SkinCeuticals Silymarin CF Acne Treatment Antioxidant|SOME BY MI AHA BHA PHA 30 DAYS MIRACLE TONER|SOME BY MI CHARCOAL BHA PORE CLAY BUBBLE MASK|SUNDAY RILEY ultra-clarifying ACNE TREATMENT FACE|UNBLEMISH Regimen for Acne| Blemishes and Breakouts|Vibrant Color with Rose Essence Anti-dandruff Shampoo|Vichy Laboratoires Normaderm Acne Control Moisturizer|Yes To Booty-Ful Paper Mask-detoxified plus acne-free|2% Salicylic Acid Suitable for Oily or Acne-Prone Skin|bareMinerals Blemish Remedy Acne Clearing Treatment Serum|Bareminerals Blemish Remedy Acne Treatment Gelee Cleanser|Blue Herbal Spot Treatment Salicylic Acid Acne Treatment|CeraVe Developed with Dermatologists Psoriasis Cleanser|CLEARSKIN PROFESSIONALINVISIBLE BLEMISH TREATMENT|clearskinblemish clearing 2-in-1 treatment and hydrator|component of Fostex medicated bar and cream (Salt\/Mix)|F2191-0216|GNC PET WELLNESS ULTRA MEDICATED ANTI-SEBORRHEIC|I DEW CARE CLEAN ZIT AWAY ACNE FOAMING CLEANSER|ID Anti-Acne Toner Clarifying Face Plus Body Treatment|Image Skincare Clear Cell Clarifying Acne Spot Treatment|Kiehls Since 1851 Blue Herbal Acne Cleanser Treatment|Lancell Huitomo Hair Loss Prevention Hair Growing Tonic|MeijerOil Free Acne Wash Pink Grapefruit Foaming Scrub|Pimple Potion Retinal Plus Salicylic Acid Acne Treatment|RAF Five-Spot On Salicylic Acid Roll-On Acne Treatment|Specific Beauty Clarifying Wash Acne Treatment Cleanser|TARGET UP AND UP FOAMING BODY WASH ACNE TREATMENT|Vichy Laboratoires Normaderm Phytoaction Deep Cleansing|Well at Walgreens Blemish and Blackhead Control Apricot|Apple Cider Vinegar Itch Relief Anti-Dandruff Conditioner|Artistry Studio Done With Zit Acne Treatment Clearing Gel|Aveeno Positively Radiant Clear Complexion Daily Moisturizer|Aveeno Positively Radiant Clear Complexion Foaming Cleanser|bareMinerals Blemish Rescue Skin-Clearing Loose Foundation|CeraVe Developed with Dermatologists Acne Control Cleanser|CeraVe Developed with Dermatologists Psoriasis Moisturizing|CLENZIDERM DAILY CARE FOAMING CLEANSERACNE TREATMENT|CVS Clarifying Acne Body Wash-Pink GrapefruitAcne Treatment|DL-LYSINE ACETYLSALICYLATE IMPURITY A EP IMPURITY|FYENACEL CALMING SHOOTER CELLANDIR HAIR LOSS-Shampoo|Harmon Face Values Blemishes and Blackheads Apricot Scrub|Men plus Care Advanced Acne Clear Face plus Body Cleanser|MILANI ERASE BASE BLEMISH CONTROL PRIMER Salicylic Acid|OXYADVANCED CARE 3 in 1 RETEXTURIZING CLEANSING PADS|OXYADVANCED CARE MAXIMUM STRENGTH 3-in-1 ACNE PADS|PRICKLY PEAR and SALICYLIC ACID ACNE CLEARING TONIC|RAF Five-Clear the Way Salicylic Acid Acne Treatment Pads|Salicylic acid| certified reference material| TraceCERT(R)|Scholls Wellness Company LLCLiquid Corn and Callus Remover|SOME BY MI AHA BHA PHA 30 DAYS MIRACLE SERUM LIGHT|Vibrant Color with Rose Essence Anti-dandruff Conditioner|Vichy Laboratoires Normaderm BHA Exfoliating Acne Treatment|VMV HYPOALLERGENICS ID SKIN-BUFFING CLEANSING SCRUB|ACNE solutions liquid MAKEUPSALICYLIC ACID ACNE TREATMENT|ARTISTRY STUDiO Rose All Day Anti Acne Toner Pore Refresher|CelestyHyperpigmentation Series Ultra Brightening Gel Cleanser|Clean and Clear Essentials Deep Cleansing TonerSensitive Skin|clear days aheadfast-acting salicylic acid acne spot treatment|clear days aheadoil-free salicylic acid acne treatment cleanser|Dr. Joe lab ACNE CONTROL CLARIFYING CLEANSERDR JOE LAB|Equate Beauty Quick Action Pads Salicylic Acid Acne Treatment|Inixial Perfection PURITY Salicylic Acid 0.5% Acne Treatment|LA Roche Posay Laboratoire Dermatologique Effaclar Clarifying|LEROSETT High-Content Organic Acne TreatmentBotanically Based|Neutrogena Scalp Therapy Anti-Dandruff Scalp Build-Up Control|Salicylic acid| British Pharmacopoeia (BP) Reference Standard|Salicylic acid| European Pharmacopoeia (EP) Reference Standard|Scholls Wellness Company LLCDS EXTRA THICK CALLUS REMOVER|Ultra CC Radiant Foundation Broad Spectrum SPF 17 Warm-Medium|Acne Free BLACKHEAD REMOVING SCRUB 2 Salicylic Acid with Charcoal|blackhead solutions self-heating blackhead extractor acne medication|CeraVe Developed with Dermatologists Acne Control Acne Treatment|clear days aheadovernight repair salicylic acid acne treatment pads|Higher Education Rush Clear Complexion Wipes With 2% Salicylic Acid|Hill Country Essentials Apricot Scrub Blemish and Blackhead Control|Inixial Perfection STOP BLEMISHES Salicylic Acid 2% Acne Treatment|Maximum Strength One Step Wart Remover Strips with Salicylic Acid|MULTI-ACTION CLEAR-ACNE CLEARING TREATMENT2% SALICYLIC ACID|NATUROPATHICA CHLOROPHYLL AND SALICYLIC ACID SPOT TREATMENT|Salicylic acid| United States Pharmacopeia (USP) Reference Standard|SKIN PHARMACY ADVANCED ACNE THERAPY CLARIFYING DAILY CLEANSER|SKIN PHARMACY ADVANCED ACNE THERAPY OVERNIGHT SALICYLIC ACID|SKIN PHARMACY ADVANCED ACNE THERAPY PORE REFINING FACIAL MASK|Vichy Laboratoires Normaderm Phytoaction Acne Control Moisturizer|Vitale Sensitive Scalp 12 In 1 Instant Relief Anti Dandruff Spray|ZO Skin Health Skin Normalizing System with Rozatrol Booster Serum|ACNE SOLUTIONS CLEARING CONCEALERACNE MEDICATION ALL SKIN TYPES|AcneFree Dermatology Inspired Care Blackhead Removing Scrub Acne Treatment|bareMinerals Blemish Rescue Skin-Clearing Loose FoundationDeepest Deep 6C|bareMinerals Blemish Rescue Skin-Clearing Loose FoundationFair Ivory 1N|bareMinerals Blemish Rescue Skin-Clearing Loose FoundationGolden Nude 3.5NW|bareMinerals Blemish Rescue Skin-Clearing Loose FoundationMedium Beige 2.5N|bareMinerals Blemish Rescue Skin-Clearing Loose FoundationNeutral Medium 3N|bareMinerals Blemish Rescue Skin-Clearing Loose FoundationWarm Deep 5.5N|blackhead solutions 7 day deep pore cleanse and scrub acne medication|Inixial Perfection MATT BALANCING CARE Salicylic Acid 2% Acne Treatment|IT Cosmetics Bye Bye Breakout Concentrated Derma Serum Acne Treatment|LA Roche Posay Laboratorie Dermatologique Effaclar Medicated Cleanser|PATCHOLOGY THE BLEMISH BUSTER BREAKOUT BOX 3-IN-1 ACNE TREATMENT|SOME BY MI AHA BHA PHA REAL CICA 92% COOL CALMING SOOTHING gel|TULA Skincare Breakout Breakthrough Acne Clarifying Toner Pads Refill|Walgreens Dandruff Itchy Dry Scalp Defense Plus Vitamins and Botanicals|ZO SKIN HEALTH OFFECTS CORRECT and CONCEAL ACNE TREATMENT (LIGHT)|CLEAR AND COVER ACNE TREATMENT CONCEALER CLEAR AND COVER ACNE TREATMENT CONCEALER|InChI=1\/C7H6O3\/c8-6-4-2-1-3-5(6)7(9)10\/h1-4|8H|(H|9|10|Kerastase Paris K Symbiose Scalp Renewal Micro Exfoliating Scrub Antidandruff Treatment|Kerastase Paris K Symbiose Serum Nuit Antipelliculaire Intensif Antidandruff Treatment|Kiehls Since 1851 Dermatologist Solutions Breakout Control Acne Treatment Facial|Kiehls Since 1851 Dermatologist Solutions Expertly Clear Acne Treating and Preventing|La Roche Posay Laboratoire Dermatologique Effaclar AntiAcne Pore Refining Acne Treatment|Leader Therapeutic DandruffAnti-Dandruff| anti-seborrheic dematitis and anti-psoriasis|NATUROPATHICA COLLOIDAL SILVER AND SALICYLIC ACID ACNE CLEARING CLEANSER|Salicylic acid| 1.0 mg\/mL in acetonitrile| ampule of 1 mL| certified reference material|Salicylic acid| Pharmaceutical Secondary Standard; Certified Reference Material|Spa Cology Skin Clearing Body Wash Salicylic Acid Acne Treatment Pink Grapefruit|ZO Skin Health Skin Normalizing System Therapeutic Treatment for red| sensitized skin|8052-31-1|Serious Skincare Continuously Clear Acne Medication For Problematic skin Dry Lo Pro All-Over Treatment|Salicylates|salicylate|salycilic acid|FSL0873

>  <cas>  (549) 
69-72-7|29656-58-4|8052-31-1

$$$$

     RDKit          2D

 12 12  0  0  0  0  0  0  0  0999 V2000
    2.2123   -2.7888    0.0000 C   0  0  0  0  0  0  0  0  0  0  0  0
    2.5001   -1.3167    0.0000 O   0  0  0  0  0  0  0  0  0  0  0  0
    1.3692   -0.3314    0.0000 C   0  0  0  0  0  0  0  0  0  0  0  0
   -0.0497   -0.8182    0.0000 C   0  0  0  0  0  0  0  0  0  0  0  0
   -1.1807    0.1671    0.0000 C   0  0  0  0  0  0  0  0  0  0  0  0
   -2.5995   -0.3197    0.0000 C   0  0  0  0  0  0  0  0  0  0  0  0
   -2.8873   -1.7918    0.0000 O   0  0  0  0  0  0  0  0  0  0  0  0
   -3.7305    0.6657    0.0000 O   0  0  0  0  0  0  0  0  0  0  0  0
   -0.8928    1.6393    0.0000 C   0  0  0  0  0  0  0  0  0  0  0  0
    0.5260    2.1261    0.0000 C   0  0  0  0  0  0  0  0  0  0  0  0
    1.6570    1.1408    0.0000 C   0  0  0  0  0  0  0  0  0  0  0  0
    3.0758    1.6276    0.0000 O   0  0  0  0  0  0  0  0  0  0  0  0
  1  2  1  0
  2  3  1  0
  3  4  2  0
  4  5  1  0
  5  6  1  0
  6  7  2  0
  6  8  1  0
  5  9  2  0
  9 10  1  0
 10 11  2  0
 11 12  1  0
 11  3  1  0
M  END
>  <identifier>  (550) 
CNP0122021.0

>  <canonical_smiles>  (550) 
COC1=CC(C(=O)O)=CC=C1O

>  <standard_inchi>  (550) 
InChI=1S/C8H8O4/c1-12-7-4-5(8(10)11)2-3-6(7)9/h2-4,9H,1H3,(H,10,11)

>  <standard_inchi_key>  (550) 
WKOLLVMJNQIZCI-UHFFFAOYSA-N

>  <name>  (550) 
Vanillic acid

>  <iupac_name>  (550) 
4-hydroxy-3-methoxy-benzoic acid

>  <annotation_level>  (550) 
5

>  <total_atom_count>  (550) 
20

>  <heavy_atom_count>  (550) 
12

>  <molecular_weight>  (550) 
168.15

>  <exact_molecular_weight>  (550) 
168.04226

>  <molecular_formula>  (550) 
C8H8O4

>  <alogp>  (550) 
1.10

>  <topological_polar_surface_area>  (550) 
66.76

>  <rotatable_bond_count>  (550) 
2

>  <hydrogen_bond_acceptors>  (550) 
3

>  <hydrogen_bond_donors>  (550) 
2

>  <hydrogen_bond_acceptors_lipinski>  (550) 
3

>  <hydrogen_bond_donors_lipinski>  (550) 
2

>  <lipinski_rule_of_five_violations>  (550) 
0

>  <aromatic_rings_count>  (550) 
1

>  <qed_drug_likeliness>  (550) 
0.69

>  <formal_charge>  (550) 
0

>  <fractioncsp3>  (550) 
0.13

>  <number_of_minimal_rings>  (550) 
1

>  <van_der_walls_volume>  (550) 
145.92

>  <contains_sugar>  (550) 
False

>  <contains_ring_sugars>  (550) 
False

>  <contains_linear_sugars>  (550) 
False

>  <murcko_framework>  (550) 
c1ccccc1

>  <np_likeness>  (550) 
0.52

>  <chemical_class>  (550) 
Benzene and substituted derivatives

>  <chemical_sub_class>  (550) 
Benzoic acids and derivatives

>  <chemical_super_class>  (550) 
Benzenoids

>  <direct_parent_classification>  (550) 
M-methoxybenzoic acids and derivatives

>  <np_classifier_pathway>  (550) 
Shikimates and Phenylpropanoids

>  <np_classifier_superclass>  (550) 
Phenolic acids (C6-C1)

>  <np_classifier_class>  (550) 
Cinnamic acids and derivatives

>  <np_classifier_is_glycoside>  (550) 
False

>  <organisms>  (550) 
Acacia lasiopetala|Acanthophyllum sordidum|Acer nikoense|Achillea biebersteinii|Achlys triphylla|Achyranthes aspera|Acinetobacter baumannii|Acinetobacter calcoaceticus|Aconitum habaense|Aconitum tanguticum|Acrisione denticulata|Acronychia laurifolia|Adesmia boronioides|Aeonium cuneatum|Aesculus hippocastanum|Aganosma caryophyllata|Agathosma scaberula|Agave deserti|Agave salmiana|Aglaia formosana|Aglaia pyramidata|Ailanthus altissima|Ajuga australis|Ajuga decumbens|Ajuga taiwanensis|Albizia procera|Alcea rosea|Alectoria ochroleuca|Allium cepa|Allium fistulosum|Allium sativum|Allium stipitatum|Alnus cordata|Alnus japonica|Aloe africana|Aloe deltoideodonta|Aloe ferox|Aloe microstigma|Aloe spicata|Aloe vera|Alstonia angustiloba|Alstonia pittieri|Alstonia undulifolia|Amomum longiligulare|Amomum villosum|Amomum xanthioides|Ampelopsis glandulosa var. brevipedunculata|Ampelopsis quinquefolia|Amsinckia tessellata|Anabaena laxa|Anastatica hierochuntica|Andrographis viscosula|Anemarrhena asphodeloides|Anethum graveolens|Angelica acutiloba|Angelica gigas|Angelica saxatilis|Angelica sinensis|Angiopteris evecta|Annona cherimola|Anolis lineatopus|Anthocercis albicans|Aphelandra chamissoniana|Aphis graminum|Aphis pini|Aplidium multiplicatum|Aquilaria sinensis|Arabidopsis thaliana|Arachis hypogaea|Arachniodes mutica|Aralidium pinnatifidum|Archidendron ellipticum|Arenaria oreophila|Aristolochia contorta|Aristolochia debilis|Aristolochia manshuriensis|Aristolochia pubescens|Armoracia rusticana|Artemisia argentea|Artemisia dracunculus|Artemisia giraldii|Artemisia pectinata|Artemisia porrecta|Artemisia rehan|Artocarpus heterophyllus|Asclepias subulata|Aspalathus linearis|Aspergillus desertorum|Aspergillus microcysticus|Aspergillus mutabilis|Asphodeline damascena|Aspidixia articulata|Asteriscus aquaticus|Astragalus membranaceus|Astragalus mongholicus|Aucuba chinensis|Aulosira fertilissima|Aurelia aurita|Avena sativa|Avrainvillea longicaulis|Axinella agnata|Baccharis dracunculifolia|Baccharis grandicapitulata|Bacterium from|Balanophora harlandii|Barnettia kerrii|Bauerella simplicifolia|Bauhinia purpurea|Beesia calthifolia|Begonia nantoensis|Berberis koreana|Berberis orthobotrys|Bersama swinnyi|Beta vulgaris|Betula davurica|Betula platyphylla|Bistorta manshuriensis|Bistorta officinalis|Bistorta vivipara|Blainvillea latifolia|Blumea eriantha|Boletinus paluster|Bombus pascuorum|Boschniakia rossica|Botrychium ternatum|Bougainvillea glabra|Brassica oleracea|Brassica rapa|Brickellia vernicosa|Brodiaea californica|Brucea javanica|Bryopsis pennata|Bryum argenteum|Bulbinella floribunda|Bulbophyllum protractum|Bupleurum sibiricum|Bursera kerberi|Bursera simaruba|Bursera tonkinensis|Buxus wallichiana|Callicarpa integerrima|Callicarpa japonica|Callistemon speciosus|Calycotome villosa|Calystegia pubescens|Capparis ovata|Capsicum annuum|Carica dodecaphylla|Carthamus oxyacantha|Carthamus tinctorius|Caryocar villosum|Casearia membranacea|Cassine papillosa|Cedronella canariensis|Celastrus monospermus|Centaurea huber-morathii|Centipeda minima|Cephalaria leucantha|Ceratostigma willmottianum|Ceriops decandra|Cestrum nocturnum|Chaenomeles sinensis|Chaetomella raphigera|Changium smyrnioides|Charpentiera obovata|Cheilanthes marantae|Chenopodium formosanum|Chiton tuberculatus|Chrozophora prostrata|Chrysanthemum indicum|Chrysanthemum x morifolium|Cichorium intybus|Cinnamomum subavenium|Cinnamomum subavenium MIQ.|Cipadessa fruticosa|Cirsium setosum|Cissus quadrangularis|Citrullus lanatus|Citrus paradisi|Citrus reticulata|Citrus sudachi|Citrus tangerina|Citrus unshiu|Cladonia impexa|Cladosporium cucumerinum|Cladrastis platycarpa|Clathria prolifera|Cleidion spiciflorum|Cleidion spiciflorum (Burm. f.) Merr.|Clematis chinensis|Clematis hexapetala|Clematis manshurica|Clematis terniflora var. mandshurica|Clerodendranthus spicatus|Clerodendrum trichotomum|Clinacanthus nutans|Clione antarctica|Cnidium officinale|Codium dwarkense|Codonopsis pilosula|Coffea arabica|Coffea canephora|Coffea liberica var. dewevrei|Coleus wulfenioides|Colladonia triquetra|Colubrina faralaotra subsp.trichocarpa.|Conium maculatum|Conus pulicarius|Coprosma areolata|Coptis chinensis|Coptis deltoidea|Coptis japonica|Coptis teeta|Cordyceps sinensis|Coriandrum sativum|Cortinarius orellanus|Corydalis pseudoadunca|Costasiella ocellifera|Cremastra appendiculata|Creosphaeria sassafras|Crepidotus fulvotomentosus|Crinum latifolium|Crocus minimus|Crocus sativus|Crotalaria stolzii|Croton montevidensis|Croton ruizianus|Cryptocarya infectoria|Cryptotaenia japonica|Cucumis sativus|Cucurbita maxima|Cucurbita moschata|Cucurbita pepo|Cunonia macrophylla|Curculigo pilosa|Curcuma aeruginosa|Curcuma domestica|Curcuma parviflora|Cyathula tomentosa|Cyberlindnera jadinii|Cybister lateralimarginalis|Cylindrospermum muscicola|Cymbastela coralliophila|Cynometra lujae|Cyperus rotundus|Cyperus rotundus L.|Cypripedium calceolus|Dalbergia ecastaphyllum|Dalbergia odorifera|Datisca glomerata|Daucus carota|Delisea elegans|Delphinium denudatum|Delphinium giraldii|Dendrobium candidum|Dendrobium chrysanthum|Dendrobium chrysotoxum|Dendrobium fimbriatum|Dendrobium loddigesii|Dendrobium nobile|Dermocybe cardinalis|Derris scandens|Desmodium styracifolium|Diabelia serrata|Dicliptera riparia|Dioscorea japonica|Dioscorea nipponica|Dioscorea olfersiana|Dioscorea opposita|Dioscorea polystachya|Diospyros canaliculata|Diospyros glaucifolia|Diospyros kaki|Diplacus aurantiacus|Diplazium esculentum|Diplodia natalensis|Dipsacus asper|Drimia fugax|Durio oxleyanus|Dysidea villosa|Dysosma versipellis|Dytiscus marginalis|Ecballium elaterium|Echinacea purpurea|Echinus microtuberculatus|Elaeagnus pungens|Elephantopus hirtiflorus|Eleutherococcus senticosus|Elmerrillia papuana|Elsholtzia ciliata|Elymnias thryallis|Emericellopsis minima|Ena montana|Engelhardia roxburghiana|Entada phaseoloides|Entada rheedei|Ephedra sinica|Epimedium brevicornu|Epimedium grandiflorum|Epimedium koreanum|Epimedium pubescens|Epimedium sagittatum|Epimedium sempervirens|Epimedium wushanense|Epipedobates anthonyi|Equsetum arvense|Eremanthus seidelii|Erica australis|Ericameria laricifolia|Eriocaulon buergerianum|Eriocaulon sieboldianum|Eriostemon crowei|Erycibe hainanesis|Erylus trisphaerus|Erythrina americana|Eucalyptus albens|Eucalyptus kitsoniana|Euclea crispa|Euonymus alatus|Euonymus fortunei|Euonymus laxiflorus|Eupatorium areolare|Eupatorium rebaudianum|Euphorbia amygdaloides|Euphorbia antiquorum|Euphorbia biglandulosa|Euphorbia formosana|Euphorbia latazi|Euphorbia resinifera|Euphrasia rubra|Euploca racemosa|Eurycoma longifolia|Eurycoma sp.|Eutrochium purpureum|Exochorda giraldii|FOOD SAKE|Fagara spp.|Fagara tessmannii Engl.|Fagus fusca|Falcaria vulgaris|Fallopia multiflora|Felimida luteorosea|Ficus beecheyana|Ficus septica|Flammulina velutipes|Flavoparmelia caperata|Flavoparmelia euplecta|Flemingia rhodocarpa|Flueggea microcarpa|Forsythia suspensa|Forsythia viridissima|Fragaria x ananassa|Fructus choerospondiatis|Fructus galangae|Fusarium sulphureum|Gambierdiscus toxicus|Ganoderma lucidum|Garcinia conrauana|Gardenia jasminoides|Gastrodia elata|Geigeria schinzii|Gentiana strictiflora|Ginkgo biloba|Gleditsia caspica|Glehnia littoralis|Glinus oppositifolius|Glochidion philippicum|Glycine max|Gmelina asiatica|Goldfussia yunnanensis|Gomphrena celosioides|Goniothalamus undulatus|Gossypium mexicanum|Gracilaria textorii|Grindelia aphanactis|Gutierrezia dracunculoides|Gymnadenia conopsea R.BR.|Gymnopus androsaceus|Hansenia weberbaueriana|Haplophyllum ramosissimum|Hedysarum gmelini|Hedysarum polybotrys|Helenium integrifolium|Helichrysum angustifolium|Helichrysum auriceps|Helichrysum cephaloideum|Helichrysum mixtum|Helichrysum sutherlandii|Helminthosporium victoriae|Hemionitis japonica|Hesperis matronalis|Hesperocyparis bakeri|Heterosigma akashiwo|Hibiscus taiwanensis|Himalaiella deltoidea|Himantoglossum hircinum|Homalomena occulta|Homo sapiens|Hordeum vulgare var. distichon|Hortonia floribunda|Hosta sieboldiana|Hubertia tomentosa|Humata pectinata|Humulus japonicus|Hydnellum zonatum|Hydrangea chinensis|Hymenidium lindleyanum|Hyoscyamus niger|Hypericum balearicum|Ilex brevicuspis|Imperata cylindrica|Inonotus obliquus|Inula salsoloides|Iotrochota birotulata|Iotrochota purpurea|Islaya minor|Isodon serra|Jackiella javanica|Jacobaea cannabifolia|Jasione montana|Jatropha macrorhiza|Juniperus scopulorum|Jurinea maxima|Kali turgidum|Kopsia longiflora|Lactarius sanguifluus|Lactarius subpiperatus|Lactuca laciniata|Lactuca sativa|Lampranthus sociorum|Larix laricina|Lasianthaea podocephala|Laurencia pacifica|Laurencia rigida|Laurentia longiflora|Lavandula pedunculata|Lecidea carpathica|Leitneria floridana|Leontice kiangnanensis|Lepidophorum repandum|Lepisorus contortus|Lepraria citrina|Leptolaena diospyroidea|Leptolaena pauciflora|Lethasterias fusca|Ligularia cymbulifera|Ligusticum sinense|Ligustrum obtusifolium|Lilium umbellatum|Lindera obtusiloba|Lindera sericea|Liquidambar orientalis|Lithospermum canescens|Litsea cubeba|Littorina littorea|Lobophytum laevigatum|Lonicera japonica|Lophiostoma vaginatispora|Lophocereus marginatus|Loranthus longiflorus|Lotus ucrainicus|Lupinus cosentinii|Lycium barbarum|Lycium chinense|Lyophyllum connatum|Lysiana subfalcata|Macaranga peltata|Machilus odoratissima|Machilus zuihoensis|Magnolia montana|Medium grandiflorum|Melampodium leucanthum|Melanargia galathea|Melia azedarach|Melia azedarach var. toosendan|Melilotus messanensis|Mentha incana|Mentha spicata|Methanosarcina barkeri|Metridium senile|Microcos paniculata|Micromonospora chalcea|Micromonospora echinospora|Microtropis fokienensis|Microtropis japonica|Millettia duchesnei|Millettia pinnata|Monanchora unguiculata|Monascus kaoliang|Morella pensylvanica|Morinda coreia|Morus alba|Morus macroura|Mycetia nutans|Myelobia smerintha|Myoporum platycarpum|Myristica cagayanensis|Myristica malabarica|Naja naja|Nauclea rhynchophylla|Nelumbo nucifera|Nematolepis phebalioides|Nemuaron humboldtii|Neofusicoccum mangiferae|Neopicrorhiza scrophulariiflora|Neopringlea integrifolia|Nidorella hottentotica|Nostoc spongiaeforme|Notechis scutatus|Notholaena aschenborniana|Notholaena lemmonii|Notonia grandiflora|Notopterygium incisum|Ocimum basilicum|Ocimum gratissimum|Ocypus olens|Olea europaea|Ongokea gore|Ophidiaster ophidianus|Ophiopholis aculeata|Ophiostoma crassioaginata|Ophryosporus charua|Opunitia dillenii HAW.|Opuntia dillenii|Oreopteris quelpaertensis|Origanum vulgare|Ormosia dasycarpa|Ormosia fordiana|Orthantha lutea|Oryza sativa|Oryza sativa cv. Heugjinjubyeo|Osteospermum muricatum|Oxytropis muricata|Pachycereus pringlei|Paeonia hybrida|Paeonia lactiflora|Paeonia rockii|Paeonia veitchii|Palaquium canaliculatum|Panax ginseng|Panax spinosus|Pangium edule|Papaver pseudocanescens|Papaver radicatum|Papaver somniferum|Parablechnum minus|Paracoccus denitrificans|Paratecoma koraiensis|Parmelia zollingeri|Passiflora morifolia|Pastinaca sativa|Pellacalyx axillaris|Penicillium alutaceum|Penicillium chrysogenum|Penicillium citrinum|Penicillium cyclopium|Peperomia duclouxii C. DC.|Peperomia sui|Peperomia vulcanica|Perilla frutescens|Pertusaria amara|Perymenium mendezii|Pestalotiopsis oenotherae|Petroselinum crispum|Petrosia hebes|Phaeolus schweinitzii|Phaseolus vulgaris|Phebalium bilobum|Phebalium dentatum|Phellodendron amurense|Phellodendron amurense var.wilsonii|Phellodendron japonicum MAXIM|Phlojodicarpus sibiricus|Phlomis crinita|Phlomis umbrosa|Phoenix dactylifera|Phora velutina|Phragmites communis|Phyllanthus amarus|Phyllanthus emblica|Phyllanthus oligospermus|Phyllanthus tenellus|Physalis edulis|Physalis sordida|Picea ajanensis|Picea glauca|Picea obovata|Picrorhiza kurrooa|Picrorhiza kurrosa|Picrorrhiza scrophulariaeflora|Picrorrhiza scrophulariiflora|Pilocarpus grandiflorus|Pinus glauca|Piper brachystachyum|Pithecellobium racemosum|Plagiomnium cuspidatum|Plakortis simplex|Plantago asiatica|Plantago lanceolata|Plantago major|Plantago media|Platycarya strobilacea|Plectranthus lanuginosus|Pleione bulbocodioides|Pleione yunnanensis|Plumbago zeylanica|Podocarpus elatus|Pogostemon cablin|Polanisia trachysperma|Polemonium caeruleum|Polyalthia nemoralis|Polyalthia stenopetala|Polygala senega|Polygonatum zanlanscianense|Polygonum flaccidum|Polysaccharidum versicolor|Polytrichum commune|Polyzonium rosalbum|Pometia eximia|Populus pseudosimonii|Populus yunnanensis|Poria cocos|Posidonia oceanica|Premna tomentosa|Prosopis kuntzei|Prunus dulcis|Prunus japonica|Prunus padus|Pseudocyphellaria australiensis|Pseudocyphellaria rubella|Pseudolarix kaempferi Gord.|Pseudomonas pseudoalcaligenes|Pseudostellaria heterophylla|Pseudotsuga japonica|Pseudowintera colorata|Psiadia anchusifolia|Psidium acutangulum|Pteris spinulosa|Pterocarpus santalinus|Punica granatum|Purpura aperta|Pyropia tenera|Quercus imbricaria|Radix liriopes|Radix paeoniae rubra|Ramalina farinacea|Ranunculus baudotii|Ranunculus ternatus|Raphanus raphanistrum|Renealmia alpinia|Rhaponticum carthamoides|Rheum rhabarbarum|Rhinacanthus nasutus|Rhizobium leguminosarum|Rhizoctonia repens|Rhizoma acori graminei|Rhizoma homalomenae occultae|Rhizophora mangle|Rhodanthe maryonii|Rhodiola crenulata|Rhododendron campylocarpum|Rhododendron dauricum|Rhododendron mucronulatum|Rhodomyrtus tomentosa|Rhus vulgaris|Roemeria refracta|Rosa canina|Rosa chinensis|Rosa rugosa|Rosmarinus officinalis|Rostellularia procumbens|Rubia yunnanensis|Rubus chingii|Rubus coreanus|Rubus idaeus|Rumex chalepensis|Rumex japonicus|Russula sardonia|Sagittaria sagittifolia|Salix alba|Salvia miltiorrhiza|Salvia officinalis|Sambucus williamsii|Sanicula epipactis|Santalum album|Sarcolaeana multiflora|Sarcophyton buitendijki|Sarcophyton elegans|Sarcophyton flexuosum|Sargentodoxa cuneata|Saussurea amara|Scabiosa comosa|Scapania aequiloba|Schisandra sphaerandra|Schisandra sphenanthera|Schrebera swietenoides|Scolytus multistriatus|Scopolia atropoides|Scrophularia koelzii|Scutellaria barbata|Secale cereale|Sedum obtuso-lineare|Selaginella pulvinata|Selaginella tamariscina|Selinum libanotis|Senecio adenophyllus|Senecio congestus|Senecio flammeus|Senecio gilliesi|Senecio heliopsis|Senecio scandens|Senna alexandrina|Senna spectabilis|Sesamum orientale|Sesbania grandiflora|Sia ferox|Sideritis dasygnaphala|Sideritis euboea|Sideritis perfoliata|Sidnyum turbinatum|Siphoneugena densiflora|Sisyrinchium californicum|Smilax china|Smilax glabra|Solanum americanum|Solanum andigena|Solanum boerhaavii|Solanum lycopersicum|Solanum melongena|Solanum nigrum|Solanum pseudopersicum|Solanum spirale|Solidago flexicaulis|Solidago petiolaris|Sophora leachiana|Sorbus tianschanica|Sparganium stoloniferum|Spartium junceum|Spatholobus suberectus|Spergula japonica|Spina gleditsiae|Spiracantha cornifolia|Spiraea formosana|Stellaria dichotoma|Stellaria media|Stenocereus thurberi|Stephania aculeata|Stephania elegans|Sterculia foetida|Stereocaulon azoreum|Stigma croci|Stizolobium deeringianum|Streblognathus aethiopicus|Streptomyces|Streptomyces D7|Streptomyces GW23/1540|Streptomyces erythrochromogenes|Streptomyces globisporus|Streptomyces griseocarneus|Streptomyces melanogenes|Streptomyces nigrescens|Streptomyces noursei|Streptomyces parvisporogenes|Streptomyces platensis|Streptomyces purpurogeneiscleroticus|Streptomyces rimofaciens|Streptomyces roseoverticillatus|Streptomyces sp. GW23/1540|Streptomyces sulfonofaciens|Streptomyces tateyamensis|Streptomyces xanthocidicus|Strophanthus hispidus|Strychnos henningsii|Strychnos ledermannii|Styrax benzoin|Styrax tonkinensis|Swertia swertopsis|Syphonota geographica|Tabebuia avellanedae|Tabernaemontana divaricata|Tadehagi triquetrum|Takifugu rubripes|Talipariti tiliaceum|Taonia australasica|Tapinella panuoides|Taraxacum formosanum|Tarchonanthus camphoratus|Taxus baccata|Taxus brevifolia|Taxus drupacea|Tephroseris kirilowii|Tephrosia bidwilli|Tetracentron sinense|Teucrium pernyi|Thea sasanqua|Theobroma cacao|Thermopsis mollis|Thielavia terricola|Thymus quinquecostatus|Thymus vulgaris|Tilia argentea|Tilia tomentosa|Tiliacora racemosa|Toddalia aculeata|Tolypothrix tjipanasensis|Tornabea scutellifera|Trachelospermum asiaticum|Trichoderma koningi|Trichophyton mentagrophytes|Trichosanthes Kirilowi|Trichosanthes bracteata|Trichosanthes kirilowii|Trichosanthes rosthornii|Triticum aestivum|Triticum durum|Trollius chinensis|Tsuga chinensis|Tupistra chinensis|Tylophora tanakae|Typha angustata|Umbilicaria esculenta|Uruparia lanosa|Usnea undulata|Utricularia australis|Uvaria chamae|Vaccinium macrocarpon|Vachellia karroo|Veratrum sabadilla|Verbascum laxum|Vernonia lilacina|Vernonia scorpioides|Veronica peregrina L.|Viburnum davidii|Vigna mungo|Viguiera linearis|Vincetoxicum pycnostelma|Virgilia divaricata|Viscum coloratum|Vitex negundo|Vitex rotundifolia|Vitex trifolia|Vittaria anguste-elongata|Viviparus japonicus|Xanthium strumarium|Xanthoria parietina|Zaluzania grayana|Zanthoxylum acutifolium|Zanthoxylum chiloperone|Zanthoxylum simulans|Zea mays|Zea mays L.|Zephyranthes flava|Zingiber officinale|Ziziphus jujuba

>  <collections>  (550) 
ANPDB|Australian natural products|BIOFACQUIM|CMAUP (cCollective molecular activities of useful plants)|ChEBI NPs|ChemSpider NPs|ConMedNP|DrugBankNP|EMNPD|ETM (Ethiopian Traditional Medicine) DB|Exposome-explorer|FooDB|HIM (Herbal Ingredients in-vivo Metabolism database)|InterBioScreen Ltd|KNApSaCK|Latin America dataset|Mitishamba database|NANPDB (Natural Products from Northern African Sources)|NPACT|NPASS|NPAtlas|NPCARE|NPEdia|NuBBEDB|Phenol-explorer|Phyto4Health|PubChem NPs|SANCDB|Specs Natural Products|StreptomeDB|Super Natural II|TCMDB-Taiwan (Traditional Chinese Medicine database)|TCMID (Traditional Chinese Medicine Integrated Database)|TIPdb (database of Taiwan indigenous plants)|UNPD (Universal Natural Products Database)|VietHerb|Watermelon

>  <dois>  (550) 
10.1002/ps.1278|10.1007/BF00367119|10.1007/s11130-020-00822-2|10.1016/0031-9422(94)00630-c|10.1016/j.bmc.2010.01.046|10.1016/j.bmc.2010.01.079|10.1016/j.bmc.2017.12.011|10.1016/j.bmcl.2011.02.104|10.1016/j.bmcl.2015.01.034|10.1016/j.jfca.2006.05.007|10.1016/j.phytochem.2004.08.051|10.1016/s0031-9422(00)90067-0|10.1021/acs.jnatprod.0c00756|10.1021/jf4025135|10.1021/np040080a|10.1021/np060500r|10.1021/np100373f|10.1021/np100902f|10.1021/np200359v|10.1021/np200780m|10.1021/np300576w|10.1021/np4001366|10.1021/np400552w|10.1021/np400701k|10.1021/np800001v|10.1021/np800097t|10.1021/np900593q|10.1021/np990033w|10.1073/pnas.1114410109|10.1080/246-1071576021000016472|10.1093/jn/133.6.1806|10.1111/1750-3841.12404|10.1111/1750-3841.15463|10.1128/AEM.66.4.1499-1508.2000|10.3390/foods9060770|10.3390/molecules24162945|10.3390/molecules24183212|10.3390/molecules27020483|10.3390/molecules27061860

>  <synonyms>  (550) 
4-HYDROXY-3-METHOXYBENZOIC ACID|121-34-6|Acide vanillique|p-Vanillic acid|Benzoic acid| 4-hydroxy-3-methoxy-|3-Methoxy-4-hydroxybenzoic acid|m-Anisic acid| 4-hydroxy-|Vanillate|VanillicAcid|Protocatechuic acid| 3-methyl ester|NSC 3987|NSC 674322|4-hydroxy-3-methoxy-Benzoic acid|UNII-GM8Q3JM2Y8|4-Hydroxy-3-methoxybenzoate|EINECS 204-466-8|GM8Q3JM2Y8|MFCD00002551|BRN 2208364|CHEBI:30816|AI3-19542|NSC-3987|VA|CHEMBL120568|DTXSID6059522|FEMA NO. 3988|DROXIDOPA METABOLITE (VA)|2-METHOXY-4-CARBOXYPHENOL|M-METHOXY-P-HYDROXY-BENZOIC ACID|Acid| Vanillic|VA (VAN)|VNL|4-hydroxy-m-Anisic acid|Vanillinsaure|Vanilic acid|4 Hydroxy 3 methoxybenzoic Acid|p-Hydroxy-m-methoxy-benzoic Acid|Acid| 4-Hydroxy-3-methoxybenzoic|Vanillic Acid|(S)|4-hydroxy-m-Anisate|Vanillic acid (M2)|Vanillic acid| 97%|bmse000486|bmse000614|bmse010205|WLN: QVR DQ CO1|VANILLIC ACID MI|3-Methoxy-4-hydroxybenzoate|SCHEMBL26179|VANILLIC ACID INCI|MLS000574833|Vanillic acid| >=97%| FG|DTXCID1033668|HMS2197E16|HY-N0708|STR02334|BBL011982|BDBM50337364|CK2172|s5343|STL163472|AKOS000113195|CCG-266343|NCGC00247610-01|1ST40128|AC-11841|BP-13246|SMR000156289|SY001450|DB-003804|Vanillic acid| purum| >=97.0% (HPLC)|AM20050239|CS-0009728|NS00014581|V0017|4-HYDROXY-3-METHOXYBENZOIC ACID FHFI|C06672|EN300-105765|Vanillic acid| Vetec(TM) reagent grade| 97%|A804715|Q419672|Q-201921|Z381356666|Vanillic acid| certified reference material| TraceCERT(R)|3E9555E5-85F5-4FCE-A429-5182E959C6A3|InChI=1\/C8H8O4\/c1-12-7-4-5(8(10)11)2-3-6(7)9\/h2-4|9H|1H3|(H|10|11|vanillic acid

>  <cas>  (550) 
121-34-6

$$$$

     RDKit          2D

 11 11  0  0  0  0  0  0  0  0999 V2000
    2.5114   -2.4914    0.0000 C   0  0  0  0  0  0  0  0  0  0  0  0
    2.4926   -0.9915    0.0000 O   0  0  0  0  0  0  0  0  0  0  0  0
    1.1843   -0.2579    0.0000 C   0  0  0  0  0  0  0  0  0  0  0  0
   -0.1053   -1.0241    0.0000 C   0  0  0  0  0  0  0  0  0  0  0  0
   -1.4136   -0.2905    0.0000 C   0  0  0  0  0  0  0  0  0  0  0  0
   -2.7031   -1.0567    0.0000 C   0  0  0  0  0  0  0  0  0  0  0  0
   -4.0115   -0.3231    0.0000 O   0  0  0  0  0  0  0  0  0  0  0  0
   -1.4324    1.2094    0.0000 C   0  0  0  0  0  0  0  0  0  0  0  0
   -0.1429    1.9756    0.0000 C   0  0  0  0  0  0  0  0  0  0  0  0
    1.1655    1.2420    0.0000 C   0  0  0  0  0  0  0  0  0  0  0  0
    2.4550    2.0082    0.0000 O   0  0  0  0  0  0  0  0  0  0  0  0
  1  2  1  0
  2  3  1  0
  3  4  2  0
  4  5  1  0
  5  6  1  0
  6  7  2  0
  5  8  2  0
  8  9  1  0
  9 10  2  0
 10 11  1  0
 10  3  1  0
M  END
>  <identifier>  (551) 
CNP0270199.0

>  <canonical_smiles>  (551) 
COC1=CC(C=O)=CC=C1O

>  <standard_inchi>  (551) 
InChI=1S/C8H8O3/c1-11-8-4-6(5-9)2-3-7(8)10/h2-5,10H,1H3

>  <standard_inchi_key>  (551) 
MWOOGOJBHIARFG-UHFFFAOYSA-N

>  <name>  (551) 
vanillin

>  <iupac_name>  (551) 
4-hydroxy-3-methoxy-benzaldehyde

>  <annotation_level>  (551) 
5

>  <total_atom_count>  (551) 
19

>  <heavy_atom_count>  (551) 
11

>  <molecular_weight>  (551) 
152.15

>  <exact_molecular_weight>  (551) 
152.04734

>  <molecular_formula>  (551) 
C8H8O3

>  <alogp>  (551) 
1.21

>  <topological_polar_surface_area>  (551) 
46.53

>  <rotatable_bond_count>  (551) 
2

>  <hydrogen_bond_acceptors>  (551) 
3

>  <hydrogen_bond_donors>  (551) 
1

>  <hydrogen_bond_acceptors_lipinski>  (551) 
3

>  <hydrogen_bond_donors_lipinski>  (551) 
1

>  <lipinski_rule_of_five_violations>  (551) 
0

>  <aromatic_rings_count>  (551) 
1

>  <qed_drug_likeliness>  (551) 
0.65

>  <formal_charge>  (551) 
0

>  <fractioncsp3>  (551) 
0.13

>  <number_of_minimal_rings>  (551) 
1

>  <van_der_walls_volume>  (551) 
136.81

>  <contains_sugar>  (551) 
False

>  <contains_ring_sugars>  (551) 
False

>  <contains_linear_sugars>  (551) 
False

>  <murcko_framework>  (551) 
c1ccccc1

>  <np_likeness>  (551) 
0.85

>  <chemical_class>  (551) 
Phenols

>  <chemical_sub_class>  (551) 
Methoxyphenols

>  <chemical_super_class>  (551) 
Benzenoids

>  <direct_parent_classification>  (551) 
Methoxyphenols

>  <np_classifier_pathway>  (551) 
Shikimates and Phenylpropanoids

>  <np_classifier_superclass>  (551) 
Phenolic acids (C6-C1)

>  <np_classifier_class>  (551) 
Cinnamic acids and derivatives

>  <np_classifier_is_glycoside>  (551) 
False

>  <organisms>  (551) 
Abies nobilis|Acacia pulchella|Acanthophyllum sordidum|Achlys triphylla|Aconitum fauriei|Aconitum habaense|Aconitum sajanense|Aconitum tanguticum|Aconitum zuccarini|Acrocarpia paniculata|Acrocomia sclerocarpa|Aeschynanthus bracteatus|Aka coralliphagum|Alangium platanifolium|Albizia Julibrissin|Albizia procera|Alcea rosea|Alcyonium utinomii|Aldisa sanguinea|Alectoria ochroleuca|Alkanna hirsutissima|Alpinia blepharocalyx|Alstonia angustiloba|Alstonia undulifolia|Amomum sulcatum|Amsinckia menziesii|Amycolatopsis azurea|Anastatica hierochuntica|Andinobates bombetes|Angelica sinensis|Anguilla japonica|Annona cherimola|Annona purpurea|Anodendron affine|Aonidiella aurantii|Aphelandra chamissoniana|Apis mellifera|Aplysia dactylomela|Aplysina archeri|Aplysina cauliformis|Aquilaria agallochum|Aquilaria sinensis|Arabidopsis thaliana|Araiostegiella perdurans|Aristolochia heterophylla Hemsl|Aristolochia pubescens|Artemisia afra|Artemisia arbuscula|Artemisia capillaries|Artemisia capillaris|Artemisia giraldii|Artemisia jacutica|Artemisia pectinata|Artemisia porrecta|Asparagus spp.|Aspergillus carneus|Aspergillus microcysticus|Aspergillus striatus|Aspergillus violaceus|Asperula odora|Asplenium normale|Asteriscus aquaticus|Austrobaileya scandens|Avena sativa|Avrainvillea nigricans|Avrainvillea rawsonii|Axinella verrucosa|Baccharis grandicapitulata|Balanops australiana|Beesia calthifolia|Begonia nantoensis|Beilschmiedia erythrophloia|Beilschmiedia tsangii|Bersama abyssinica|Beta spp.|Betula platyphylla|Bipolaris bicolor|Bonnemaisonia asparagoides|Boschniakia rossica|Bosistoa floydii|Botrychium ternatum|Bougainvillea glabra|Brachanthemum gobicum|Brucea javanica|Bryopsis pennata|Buddleja variabilis|Bulbophyllum protractum|Bupleurum chinense|Bursera kerberi|Bursera tonkinensis|Calea megacephala|Calystegia pubescens|Canarium schweinfurthii|Capparis ovata|Carpobrotus edulis|Cassia artemisioides|Cassia jahnii|Cassine papillosa|Cassytha filiformis|Castanea crenata|Cedrela salvadorensis|Centaurea dealbata|Centrolobium tomentosum|Cephalonomia gallicola|Ceratophyllum submersum|Ceratozamia kuesteriana|Cestrum nocturnum|Chaerophyllum hirsutum|Chamaecyparis formosensis|Chamaecyparis pisifera|Charpentiera obovata|Cheilanthes mysurensis|Chelidonura fulvipunctata|Cinnamomum kotoense|Cinnamomum subavenium|Cinnamomum subavenium MIQ.|Citrullus lanatus|Citrus limonia|Citrus reshni|Citrus yuko|Clathria basilana|Clathria prolifera|Clerodendrum trichotomum|Clinacanthus nutans|Cnidium officinale|Coffea liberica var. dewevrei|Conioselinum vaginatum|Conocybe siliginea|Conus pulicarius|Conus tessulatus|Cordyline indivisa|Coronophora gregaria|Cortinarius odoratus|Cortinarius vinosipes|Corydalis cornuta|Costasiella ocellifera|Cremastra appendiculata|Creosphaeria sassafras|Crotalaria stolzii|Croton montevidensis|Croton penduliflorus|Cryptocarya chinensis|Curculigo capitulata|Curcuma aeruginosa|Curcuma comosa|Curcuma longa|Cybister confusus|Cylas formicarius|Cynoctonum wilfordii|Cyphelium chrysocephalum|Cypripedium calceolus|Dacrycarpus imbricatus|Dacrydium biforme|Dahlia spp.|Damnacanthus major|Datisca glomerata|Delisea elegans|Delphinium campylocentrum|Delphinium giraldii|Didemnum inarmatum|Dioscorea olfersiana|Diospyros glaucifolia|Disepalum plagioneurum|Doris montereyensis|Dorstenia turbinata|Dracocephalum kotschyi|Drypetes roxburghii|Duddingtonia flagrans|Ecballium elaterium|Echinaster echinophorus|Echinus microtuberculatus|Egregia menziesii|Eleutherobia albiflora|Elymnias thryallis|Emericellopsis minima|Engelhardia roxburghiana|Epipactis palustris|Equisetum hiemale|Eremophila serrulata|Eschweilera coriacea|Eucalyptus albens|Eucalyptus calophylla|Eucalyptus cladocalyx|Eucalyptus jenseni|Eugenia caryopyhllata|Euonymus fortunei|Euonymus tingens|Euphorbia cornigera|Euphorbia jaxartica|Euploca racemosa|Eurycoma longifolia|FOOD SAKE|Fagus fusca|Fallopia multiflora|Ferula assa-foetida|Ficus beecheyana|Flammulina velutipes|Formica fusca|Galeocerdo arcticus|Garcinia cambogia|Garcinia lateriflora|Gastrodia elata|Grindelia nana|Gutierrezia dracunculoides|Gymnadenia spp.|Gymnopus confluens|Gynura elliptica|Gynura segetum|Hakea saligna|Halopitys incurvus|Haloxylon salicornicum|Hedysarum gmelini|Hedysarum sachalinense|Helenium integrifolium|Helianthus annuus|Helichrysum auriceps|Herrania albiflora|Hertia cheirifolia|Hibiscus taiwanensis|Homo sapiens|Hortonia floribunda|Hubertia tomentosa|Hydnellum zonatum|Hydnora johannis|Hylocomium splendens|Hymenoxys microcephala|Ilyocoris cimicoides|Imperata cylindrica|Inocybe aeruginascens|Iotrochota purpurea|Jacobaea incana|Jasminum grandiflorum|Juniperus rigida|Juniperus scopulorum|Kokoona reflexa|Lactifluus subvellereus|Lactuca laciniata|Lampranthus sociorum|Lasianthaea podocephala|Lecanora lividocinerea|Lecidea carpathica|Lepechinia caulescens|Leptothorax acervorum|Leucanthemum maximum|Licaria chrysophylla|Ligularia dentata Hara|Ligularia stenocephala Matsum.et Koidz.|Ligusticum chuanxiong|Ligusticum chuanxiung|Ligusticum sinense|Ligustrum obtusifolium|Lippia carviodora|Liquidambar orientalis|Lithocolletis coryli|Litsea konishii|Lonchocarpus urucu|Lotus ucrainicus|Lupinus cosentinii|Lychnophora columnaris|Lyophyllum connatum|Macrolepiota neomastoidea|Maesa ramentacea|Magnolia ovata|Malva rotundifolia|Maprounea guianensis|Melaleuca uncinata|Melampodium leucanthum|Melanargia galathea|Melia azedarach|Melia azedarach var. toosendan|Melolontha melolontha|Mentha pulegiformis|Mentha x piperita|Metridium senile|Mexican propolis|Micromelum integerrimum|Micromonospora echinospora|Microtropis japonica|Millettia ichthyochtona|Millettia laurentii|Millettia pinnata|Monascus purpureus|Monodora tenuifolia|Morella pensylvanica|Morinda citrifolia|Mostuea brunonis|Myelobia smerintha|Myrica nana|Myristica argentea|Myristica cagayanensis|Nauclea rhynchophylla|Neopetrosia exigua|Nephroma australe|Nototodarus sloanii|Ocimum tenuiflorum|Oecophylla smaragdina|Olea europaea|Ophelia bicornis|Ophidiaster ophidianus|Ormosia dasycarpa|Ormosia hosiei|Ornithoglossum viride|Orthantha lutea|Osmundaria colensoi|Panax ginseng|Panax japonicus|Panax japonicus var. major (burk.) wu et feng|Panax notoginseng|Panax quinquefolius|Panax spinosus|Papaver glaucum|Papaver pseudocanescens|Parmelia caraccensis|Parmelia metastrigosa|Parmelia pokornyi|Pellacalyx axillaris|Pellicularia sasakii|Peltodon longipes|Penicillium cyclopium|Penicillium janczewskii|Pentaceraster regulus|Periploca sepium|Peritassa campestris|Persea indica|Pertusaria amara|Pertusaria truncata|Perymenium mendezii|Pestalotiopsis oenotherae|Petasites laevigatus|Phebalium dentatum|Phegopteris bukoensis|Phlomis crinita|Phoebe formosana|Phyllanthus oligospermus|Picea glauca|Picris radicata|Pimenta dioica|Pinus picea|Pinus strobus|Pinus sylvestris|Piper aequale|Piper attenuatum|Piper brachystachyum|Pisonia aculeata|Plakortis lita|Pleione bulbocodioides|Pleione yunnanensis|Pluchea odorata|Pneumatospora obcoronata|Pocillopora eydouxi|Podocarpus elongata|Polyalthia stenopetala|Polygonum flaccidum|Polyphaga sinensis|Polypodium decumanum|Polysiphonia lanosa|Popillia japonica|Populus tomentosa|Posidonia oceanica|Primula hirsuta|Pseudocyphellaria australiensis|Pseudomonas fluorescens|Pseudoplexaura flagellosa|Pseudostellaria heterophylla|Pseudotsuga japonica|Pseudotsuga sinensis var. wilsoniana|Pseudotsuga wilsoniana|Pseudowintera colorata|Psidium acutangulum|Psilostrophe cooperi|Pteris altissima|Puccinia lagenophorae|Pulveroboletus retipes|Pyropia tenera|Quercus imbricaria|Quercus laurifolia|Rehmannia glutinosa|Renealmia alpinia|Rhododendron ferrugineum|Rhododendron mucronulatum|Rhus semialata|Rodgersia podophylla|Roemeria refracta|Rubia tetragona|Rubus idaeus|Rubus sanctus|Rumex obtusifolius|Ruta spp.|Salacia lehmbachii|Salvadora persica|Salvia divaricata|Salvia nubicola|Salvia yosgadensis|Sarcophyton flexuosum|Sarcophyton latum|Saussurea cordifolia|Scapania nemorea|Schefflera divaricata|Schizanthus tricolor|Schlumbergera truncata|Sclerodoris tanya|Scrophularia buergeriana|Scrophularia koelzii|Scrophularia ningpoensis|Secale cereale|Selinum libanotis|Senecio congestus|Senecio scandens|Sesamum orientale|Shigella flexneri|Sideritis brevibracteata|Sideritis dasygnaphala|Sideritis tragoriganum|Sideroxylon cubense|Siphonaria australis|Smenospongia echina|Solanum andigena|Solanum jamaicense|Solanum tomatillo|Sphacelaria arctica|Sphaeranthus confertifolius|Spiracantha cornifolia|Spiraea spp.|Sraitia grosvenorii|Stauntonia hexaphylla|Stellaria dichotoma|Stellaria media|Stereocaulon japonicum|Stevia rebaudiana|Streptomyces|Streptomyces Hedaya48|Streptomyces V1|Streptomyces melanogenes|Streptomyces misawanensis|Streptomyces parvisporogenes|Streptomyces platensis|Streptomyces setonii|Strophanthus hispidus|Strychnos henningsii|Strychnos triplinervia|Styrax benzoin|Styrax tonkinensis|Syzygium aromaticum|Tabebuia avellanedae|Taraxacum borealisinense|Taraxacum coreanum|Taraxacum formosanum|Taraxacum mongolicum|Taraxacum officinale|Taraxacum platycarpum|Tarchonanthus camphoratus|Taxus mairei|Taxus yunnanensis|Tecoma heptaphylla|Tephroseris kirilowii|Tetracentron sinense|Thea sasanqua|Theobroma cacao|Tithonia rotundifolia|Tribulus terrestris|Trifolium alexandrinum|Tupistra chinensis|Tylophora tanakae|Ulva pertusa|Urtica dioica|Uruparia lanosa|Vaccinium corymbosum|Vaccinium myrtillus|Vallaris solanacea|Vanilla planifolia|Vanilla spp.|Vepris louisii|Vernonia scorpioides|Veronica intercedens|Viguiera decurrens|Viscum articulactum|Viscum coloratum|Vitex trifolia|Vittaria anguste-elongata|Viviparus japonicus|Vouacapoua macropetala|Xanthium spinosum|Xanthium strumarium|Yponomeuta malinellus|Zanthoxylum wutaiense|Zea mays|Zea mays L.|Zephyranthes flava|Zingiber officinale

>  <collections>  (551) 
ANPDB|Australian natural products|BIOFACQUIM|CMAUP (cCollective molecular activities of useful plants)|ChEBI NPs|ChemSpider NPs|ConMedNP|EMNPD|ETM (Ethiopian Traditional Medicine) DB|FooDB|HIM (Herbal Ingredients in-vivo Metabolism database)|KNApSaCK|Latin America dataset|NANPDB (Natural Products from Northern African Sources)|NPASS|NPEdia|Phenol-explorer|Phyto4Health|PubChem NPs|ReSpect|Seaweed Metabolite Database (SWMD)|StreptomeDB|Super Natural II|TCMDB-Taiwan (Traditional Chinese Medicine database)|TCMID (Traditional Chinese Medicine Integrated Database)|TIPdb (database of Taiwan indigenous plants)|UNPD (Universal Natural Products Database)|Watermelon|p-ANAPL

>  <dois>  (551) 
10.1007/BF00367119|10.1007/s00449-013-1060-x|10.1007/s10295-010-0729-2|10.1016/0031-9422(91)83230-I|10.1016/j.ab.2009.06.031|10.1016/j.sajb.2011.09.010|10.1021/np0305268|10.1021/np900772m|10.1080/14786410601132451|10.1093/pcp/pcn183|10.1371/journal.pone.0067339|10.3390/molecules27061860

>  <synonyms>  (551) 
4-Hydroxy-3-methoxybenzaldehyde|121-33-5|Vanillaldehyde|p-Vanillin|Lioxin|Vanilline|Vanilla|3-Methoxy-4-hydroxybenzaldehyde|4-Hydroxy-m-anisaldehyde|2-Methoxy-4-formylphenol|Benzaldehyde| 4-hydroxy-3-methoxy-|Zimco|Methylprotocatechuic aldehyde|4-Formyl-2-methoxyphenol|Vanilin|Vanillin (natural)|m-Anisaldehyde| 4-hydroxy-|Protocatechualdehyde| methyl-|FEMA No. 3107|vaniline|Rhovanil|Protocatechualdehyde 3-methyl ether|Vanillin (NF)|NSC 15351|CCRIS 2687|Vanillin Melting Point Standard|HSDB 1027|EINECS 204-465-2|NSC-15351|NSC-48383|Vanillin NF|NSC-403658|UNII-CHI530446X|BRN 0472792|Vanillin (Standard)|CHEBI:18346|AI3-00093|NPLC-0145|CHI530446X|MFCD00006942|CHEMBL13883|DTXSID0021969|VANILLIN (METHOXY-13C)|EC 204-465-2|H-0264|4-08-00-01763 (Beilstein Handbook Reference)|4-HYDROXY|3-METHOXY-BENZALDEHYDE|NCGC00091645-03|4-hydroxy-3-methoxybenzaldehyde (vanillin)|VANILLIN (II)|VANILLIN II|VANILLIN (MART.)|VANILLIN MART.|WLN: VHR DQ CO1|Vanillin USAN|DTXCID301969|VANILLIN (EP MONOGRAPH)|Vanillinum|Oleoresin vanilla|Vanilla oleoresin|CAS-121-33-5|oleo-Resins vanilla|V55|Vanillin sodium salt|VANILLIN FHFI|VANILLIN HSDB|FEMA Number 3107|oleo-Resins vanilla-bean|VANILLIN FCC|VANILLIN VANDF|methyl-Protocatechualdehyde|bmse000343|bmse000597|bmse010006|VANILLIN USP-RS|VANILLIN WHO-DD|SCHEMBL1213|MLS002303069|BIDD:ER0330|Vanillin| puriss.| 99.5%|GTPL6412|SGCUT00016|METHYLPROTOCATECHUALDEHYDE|HY-N0098R|Vanilla oleoresin (vanilla SPP)|VANILLIN| NATURAL FHFI|Vanillin| ReagentPlus(R)| 99%|HMS3651D20|HMS3885K07|Vanillin| >=97%| FCC| FG|4-hydoxy-3-(methyloxy)benzaldehyde|BCP29943|STR01001|to_000089|Tox21_113534|Tox21_201925|Tox21_300352|BBL011956|BDBM50177405|MFCD08702848|s3071|STK199262|AKOS000118929|CCG-266230|CS-W020052|Vanillin| tested according to Ph.Eur.|NCGC00254468-01|NCGC00259474-01|Vanillin| natural| >=97%| FCC| FG|AC-10370|BP-10602|NCI60_001085|SMR000156285|SY224451|Vanillin 1000 microg\/mL in Acetonitrile|Vanillin| JIS special grade| >=98.0%|Vanillin| Vetec(TM) reagent grade| 98%|3-Methoxy-4-hydroxybenzaldehyde (vanillin)|DB-003805|AM20060497|CS-0694801|NS00009754|SW219190-1|V0080|EN300-18281|vanillin (3-methoxy-4-hydroxy- benzaldehyde)|A19444|C00755|D00091|Q33495|4-Hydroxy-3-methoxybenzaldehyde inclusion complex|Vanillin (83 degrees C) Melting Point Standard|4-hydroxy-3-methoxy-Benzaldehyde-5-chlorovanillin|4-hydroxy-3-methoxybenzaldehyde (ACD\/Name 4.0)|AC-907\/21098004|Q-100102|Vanillin| TraceCERT(R)| certified reference material|Z57772449|F2190-0587|Vanillin| European Pharmacopoeia (EP) Reference Standard|1-(AMINOMETHYL)-CYCLOPROPANECARBOXYLICACIDETHYLESTER|Mettler-Toledo Calibration substance ME 51143093| Vanillin|Vanillin| United States Pharmacopeia (USP) Reference Standard|NSC 15351;NSC-15351; NSC15351 pound>>4-Hydroxy-3-methoxybenzaldehyde|Vanillin| Pharmaceutical Secondary Standard; Certified Reference Material|InChI=1\/C8H8O3\/c1-11-8-4-6(5-9)2-3-7(8)10\/h2-5|10H|1H|Vanillin Melting Point Standard| United States Pharmacopeia (USP) Reference Standard|Mettler-Toledo Calibration substance ME 51143093| Vanillin| traceable to primary standards (LGC)|Vanillin melting point standard| Pharmaceutical Secondary Standard; Certified Reference Material|vanillin

>  <cas>  (551) 
121-33-5

$$$$

     RDKit          2D

 11 11  0  0  0  0  0  0  0  0999 V2000
   -4.1862    0.7785    0.0000 C   0  0  0  0  0  0  0  0  0  0  0  0
   -3.3137   -0.4417    0.0000 O   0  0  0  0  0  0  0  0  0  0  0  0
   -1.8208   -0.2961    0.0000 C   0  0  0  0  0  0  0  0  0  0  0  0
   -1.2003    1.0695    0.0000 C   0  0  0  0  0  0  0  0  0  0  0  0
    0.2926    1.2151    0.0000 C   0  0  0  0  0  0  0  0  0  0  0  0
    1.1651   -0.0051    0.0000 C   0  0  0  0  0  0  0  0  0  0  0  0
    2.6580    0.1404    0.0000 C   0  0  0  0  0  0  0  0  0  0  0  0
    3.2784    1.5061    0.0000 O   0  0  0  0  0  0  0  0  0  0  0  0
    3.5305   -1.0797    0.0000 O   0  0  0  0  0  0  0  0  0  0  0  0
    0.5446   -1.3708    0.0000 C   0  0  0  0  0  0  0  0  0  0  0  0
   -0.9483   -1.5163    0.0000 C   0  0  0  0  0  0  0  0  0  0  0  0
  1  2  1  0
  2  3  1  0
  3  4  2  0
  4  5  1  0
  5  6  2  0
  6  7  1  0
  7  8  2  0
  7  9  1  0
  6 10  1  0
 10 11  2  0
 11  3  1  0
M  END
>  <identifier>  (552) 
CNP0249583.0

>  <canonical_smiles>  (552) 
COC1=CC=C(C(=O)O)C=C1

>  <standard_inchi>  (552) 
InChI=1S/C8H8O3/c1-11-7-4-2-6(3-5-7)8(9)10/h2-5H,1H3,(H,9,10)

>  <standard_inchi_key>  (552) 
ZEYHEAKUIGZSGI-UHFFFAOYSA-N

>  <name>  (552) 
4-METHOXYBENZOIC ACID

>  <iupac_name>  (552) 
4-methoxybenzoic acid

>  <annotation_level>  (552) 
5

>  <total_atom_count>  (552) 
19

>  <heavy_atom_count>  (552) 
11

>  <molecular_weight>  (552) 
152.15

>  <exact_molecular_weight>  (552) 
152.04734

>  <molecular_formula>  (552) 
C8H8O3

>  <alogp>  (552) 
1.39

>  <topological_polar_surface_area>  (552) 
46.53

>  <rotatable_bond_count>  (552) 
2

>  <hydrogen_bond_acceptors>  (552) 
2

>  <hydrogen_bond_donors>  (552) 
1

>  <hydrogen_bond_acceptors_lipinski>  (552) 
2

>  <hydrogen_bond_donors_lipinski>  (552) 
1

>  <lipinski_rule_of_five_violations>  (552) 
0

>  <aromatic_rings_count>  (552) 
1

>  <qed_drug_likeliness>  (552) 
0.70

>  <formal_charge>  (552) 
0

>  <fractioncsp3>  (552) 
0.13

>  <number_of_minimal_rings>  (552) 
1

>  <van_der_walls_volume>  (552) 
136.89

>  <contains_sugar>  (552) 
False

>  <contains_ring_sugars>  (552) 
False

>  <contains_linear_sugars>  (552) 
False

>  <murcko_framework>  (552) 
c1ccccc1

>  <np_likeness>  (552) 
-0.17

>  <chemical_class>  (552) 
Benzene and substituted derivatives

>  <chemical_sub_class>  (552) 
Benzoic acids and derivatives

>  <chemical_super_class>  (552) 
Benzenoids

>  <direct_parent_classification>  (552) 
P-methoxybenzoic acids and derivatives

>  <np_classifier_pathway>  (552) 
Shikimates and Phenylpropanoids

>  <np_classifier_superclass>  (552) 
Phenolic acids (C6-C1)

>  <np_classifier_class>  (552) 
Simple phenolic acids

>  <np_classifier_is_glycoside>  (552) 
False

>  <organisms>  (552) 
Abies nobilis|Acanthopanax ricinifolius|Acrocomia sclerocarpa|Agastache rugosa|Albizia Julibrissin|Alkanna hirsutissima|Amomum longiligulare|Amomum villosum|Amomum xanthioides|Amsinckia menziesii|Anacardium occidentale|Anastatica hierochuntica|Anchusa officinalis|Angelica sinensis|Annona purpurea|Aquilaria sinensis|Aspergillus pseudodeflectus|Asplenium adiantum-nigrum|Avrainvillea nigricans|Buddleja variabilis|Calea megacephala|Calocera viscosa|Caryopteris mongholica|Cestrum nocturnum|Chromolaena odorata|Clausena dunniana|Cordyceps sinensis|Cordyline indivisa|Coronophora gregaria|Corydalis cornuta|Cotoneaster orbicularis|Croton draco Schltdl.& Cham.|Dacrydium biforme|Dalbergia rubiginosa|Delphinium campylocentrum|Didemnum inarmatum|Disepalum plagioneurum|Distemonanthus benthamianus|Drypetes roxburghii|Eremophila serrulata|Eupatorium odoratum|Euphorbia kansui|Ferula sinaica|Ficus mucuso|Foeniculum vulgare|Formica fusca|Fructus anisi|Fructus anisi stellati|Grindelia nana|Hakea saligna|Halopitys incurvus|Haloxylon salicornicum|Homo sapiens|Hydnellum zonatum|Illicium verum|Jasminum grandiflorum|Lecanora lividocinerea|Leptothorax acervorum|Leucanthemum maximum|Leucetta microrhaphis|Limnophila rugosa|Macrosiphum liriodendri|Malva silvestris|Mappia foetida|Medicago sativa|Melaleuca uncinata|Mentha pulegiformis|Mesembryanthemum tortuosum|Metapenaeus macleayi|Monascus purpureus|Monomorium delagoense|Neolitsea acuminatissima|Nephroma australe|Orthantha lutea|Osmundaria colensoi|Palicourea coriacea|Parthenium hysterophorus|Parthenium hysterophorus L.|Persea indica|Phegopteris bukoensis|Picris radicata|Pimpinella anisum|Pinus picea|Piper aequale|Piper philippinum|Polycarpa aurata|Polyphaga sinensis|Posidonia oceanica|Primula hirsuta|Ramalina terebrata|Rhododendron dauricum|Rhododendron ferrugineum|Rhododendron mucronulatum|Rodgersia podophylla|Salvia nubicola|Satureja atropatana|Scapania nemorea|Senecio scandens|Shigella flexneri|Smenospongia echina|Streptomyces misawanensis|Tabebuia avellanedae|Taraxacum formosanum|Trianthema portulacastrum|Usnea japonica|Vallaris solanacea|Viscum coloratum|Vitex trifolia

>  <collections>  (552) 
ANPDB|Australian natural products|BIOFACQUIM|CMAUP (cCollective molecular activities of useful plants)|ChEBI NPs|ConMedNP|DrugBankNP|ETM (Ethiopian Traditional Medicine) DB|FooDB|KNApSaCK|Latin America dataset|NANPDB (Natural Products from Northern African Sources)|NPASS|Phyto4Health|Super Natural II|TCMDB-Taiwan (Traditional Chinese Medicine database)|TCMID (Traditional Chinese Medicine Integrated Database)|TIPdb (database of Taiwan indigenous plants)|UNPD (Universal Natural Products Database)|VietHerb

>  <dois>  (552) 
10.1007/bf02878182|10.1016/S0031-9422(99)00598-1|10.1016/j.bmc.2010.01.046|10.1016/j.bmc.2010.01.077|10.1021/acs.jnatprod.9b00697|10.1021/jf1017143|10.1021/np100778k|10.1021/np100896w|10.1021/np100902f|10.3390/molecules27061860

>  <synonyms>  (552) 
p-Anisic acid|100-09-4|ANISIC ACID|p-Methoxybenzoic acid|Draconic acid|Benzoic acid| 4-methoxy-|ANISIC ACID| PARA|para-anisic acid|1335-08-6|Anisic acid| p-isomer|P-Methoxy Benzoic Acid|Kyselina 4-methoxybenzoova|4-methoxy-benzoic acid|UNII-4SB6Y7DMM3|EINECS 202-818-5|4SB6Y7DMM3|MFCD00002542|NSC 32742|BRN 0508910|CHEBI:40813|AI3-00893|NSC-32742|DTXSID4059205|FEMA NO. 3945|4-10-00-00346 (Beilstein Handbook Reference)|4-Methoxybenzoic acid;Draconic acid|p-anisate|p-methoxybenzoate|ANN|Kyselina 4-methoxybenzoova Czech|anisoic acid|EINECS 215-618-8|1sv3|paramethoxy benzoic acid|P-ANISIC ACID||4-(methyloxy)benzoic acid|bmse000356|bmse010012|NCIOpen2_004706|P-ANISIC ACID MI|SCHEMBL43335|CHEMBL21932|P-ANISIC ACID INCI|DTXCID0032445|SCHEMBL12015259|p-Anisic acid| >=99%| FG|NSC7926|BDBM243072|HMS1760M22|HMS3604D05|HMS3746I21|p-Anisic acid| analytical standard|BCP29617|CS-B1766|HY-N1394|STR02874|p-Anisic acid| natural| 99%| FG|AB2885|STK498216|4-METHOXYBENZOIC ACID FHFI|AKOS000118883|AM86179|DB02795|PS-3382|NCGC00382881-02|AC-11353|BP-10768|SY001719|DB-023671|A0482|NS00013936|4-Methoxybenzoic acid| ReagentPlus(R)| 99%|Anisic acid-Melting point 183.5  degrees C|EN300-17433|C02519|p-Anisic acid| Vetec(TM) reagent grade| 98%|Anisic acid - Melting point 183.5  masculineC|A800042|AE-848\/32075009|Q-200489|Q4566032|Melting point standard 182-184C| analytical standard|Z56931884|F1335-0001|4-Methoxybenzoic acid| certified reference material| TraceCERT(R)|InChI=1\/C8H8O3\/c1-11-7-4-2-6(3-5-7)8(9)10\/h2-5H|1H3|(H|9|10|4-Methoxy-benzoic Acid; 4-Anisic acid; Anisic acid pound>>p-Anisic acid pound>>p-Methoxybenzoic acid|p-Anisate

>  <cas>  (552) 
100-09-4|1335-08-6

$$$$

     RDKit          2D

 18 20  0  0  0  0  0  0  0  0999 V2000
    6.1816    0.6744    0.0000 C   0  0  0  0  0  0  0  0  0  0  0  0
    4.7889    1.2316    0.0000 C   0  0  0  0  0  0  0  0  0  0  0  0
    3.6101    0.3040    0.0000 C   0  0  0  0  0  0  0  0  0  0  0  0
    2.2174    0.8612    0.0000 C   0  0  0  0  0  0  0  0  0  0  0  0
    1.0385   -0.0664    0.0000 C   0  0  0  0  0  3  0  0  0  0  0  0
    1.2524   -1.5511    0.0000 C   0  0  0  0  0  3  0  0  0  0  0  0
    2.6451   -2.1082    0.0000 C   0  0  0  0  0  0  0  0  0  0  0  0
    0.0735   -2.4786    0.0000 C   0  0  0  0  0  0  0  0  0  0  0  0
   -1.3191   -1.9215    0.0000 C   0  0  0  0  0  3  0  0  0  0  0  0
   -2.6651   -2.5837    0.0000 C   0  0  0  0  0  0  0  0  0  0  0  0
   -3.7108   -1.5082    0.0000 C   0  0  0  0  0  0  0  0  0  0  0  0
   -3.0111   -0.1814    0.0000 C   0  0  0  0  0  0  0  0  0  0  0  0
   -1.5330   -0.4368    0.0000 C   0  0  0  0  0  0  0  0  0  0  0  0
   -0.3542    0.4907    0.0000 C   0  0  0  0  0  0  0  0  0  0  0  0
   -0.8603    1.9100    0.0000 N   0  0  0  0  0  0  0  0  0  0  0  0
   -2.3036    2.3185    0.0000 C   0  0  0  0  0  0  0  0  0  0  0  0
   -2.6714    3.7727    0.0000 N   0  0  0  0  0  0  0  0  0  0  0  0
   -3.3790    1.2728    0.0000 N   0  0  0  0  0  0  0  0  0  0  0  0
  1  2  1  0
  2  3  1  0
  3  4  1  0
  4  5  1  0
  5  6  1  0
  6  7  1  0
  6  8  1  0
  8  9  1  0
  9 10  1  0
 10 11  1  0
 11 12  1  0
 12 13  2  0
 13 14  1  0
 14 15  2  0
 15 16  1  0
 16 17  2  0
 16 18  1  0
 14  5  1  0
 13  9  1  0
 18 12  1  0
M  RAD  3   5   2   6   2   9   2
M  END
>  <identifier>  (553) 
CNP0571280.0

>  <canonical_smiles>  (553) 
CCCC[C]1[C](C)C[C]2CCC3=C2C1=NC(=N)N3

>  <standard_inchi>  (553) 
InChI=1S/C15H20N3/c1-3-4-5-11-9(2)8-10-6-7-12-13(10)14(11)18-15(16)17-12/h3-8H2,1-2H3,(H2,16,17,18)

>  <standard_inchi_key>  (553) 
ARNBVSOOJTUWNE-UHFFFAOYSA-N

>  <name>  (553) 
Mirabilin B

>  <iupac_name>  (553) 
nan

>  <annotation_level>  (553) 
5

>  <total_atom_count>  (553) 
38

>  <heavy_atom_count>  (553) 
18

>  <molecular_weight>  (553) 
242.35

>  <exact_molecular_weight>  (553) 
242.16572

>  <molecular_formula>  (553) 
C15H20N3

>  <alogp>  (553) 
2.87

>  <topological_polar_surface_area>  (553) 
52.53

>  <rotatable_bond_count>  (553) 
3

>  <hydrogen_bond_acceptors>  (553) 
2

>  <hydrogen_bond_donors>  (553) 
2

>  <hydrogen_bond_acceptors_lipinski>  (553) 
2

>  <hydrogen_bond_donors_lipinski>  (553) 
2

>  <lipinski_rule_of_five_violations>  (553) 
0

>  <aromatic_rings_count>  (553) 
1

>  <qed_drug_likeliness>  (553) 
0.84

>  <formal_charge>  (553) 
0

>  <fractioncsp3>  (553) 
0.53

>  <number_of_minimal_rings>  (553) 
3

>  <van_der_walls_volume>  (553) 
240.46

>  <contains_sugar>  (553) 
False

>  <contains_ring_sugars>  (553) 
False

>  <contains_linear_sugars>  (553) 
False

>  <murcko_framework>  (553) 
N1=C2C3=C(NC1)CCC3CCC2

>  <np_likeness>  (553) 
-0.07

>  <chemical_class>  (553) 
Diazanaphthalenes

>  <chemical_sub_class>  (553) 
Benzodiazines

>  <chemical_super_class>  (553) 
Organoheterocyclic compounds

>  <direct_parent_classification>  (553) 
Quinazolines

>  <np_classifier_pathway>  (553) 
Alkaloids

>  <np_classifier_superclass>  (553) 
Tryptophan alkaloids

>  <np_classifier_class>  (553) 
nan

>  <np_classifier_is_glycoside>  (553) 
False

>  <organisms>  (553) 
Monanchora arbuscula

>  <collections>  (553) 
BIOFACQUIM

>  <dois>  (553) 
10.3390/molecules28020606

>  <synonyms>  (553) 
Mirabilin B

>  <cas>  (553) 
nan

$$$$

     RDKit          2D

 23 23  0  0  0  0  0  0  0  0999 V2000
  -10.3610    2.0792    0.0000 C   0  0  0  0  0  0  0  0  0  0  0  0
   -9.0600    1.3326    0.0000 C   0  0  0  0  0  0  0  0  0  0  0  0
   -9.0561   -0.1674    0.0000 C   0  0  0  0  0  0  0  0  0  0  0  0
  -10.3532   -0.9208    0.0000 C   0  0  0  0  0  0  0  0  0  0  0  0
   -7.7551   -0.9140    0.0000 C   0  0  0  0  0  0  0  0  0  0  0  0
   -6.4581   -0.1606    0.0000 C   0  0  0  0  0  0  0  0  0  0  0  0
   -6.4620    1.3394    0.0000 O   0  0  0  0  0  0  0  0  0  0  0  0
   -5.1571   -0.9072    0.0000 C   0  0  0  0  0  0  0  0  0  0  0  0
   -3.8600   -0.1538    0.0000 C   0  0  0  0  0  0  0  0  0  0  0  0
   -2.5590   -0.9004    0.0000 C   0  0  0  0  0  0  0  0  0  0  0  0
   -1.2619   -0.1470    0.0000 C   0  0  0  0  0  0  0  0  0  0  0  0
    0.0391   -0.8936    0.0000 C   0  0  0  0  0  0  0  0  0  0  0  0
    1.3361   -0.1402    0.0000 C   0  0  0  0  0  0  0  0  0  0  0  0
    2.6371   -0.8868    0.0000 C   0  0  0  0  0  0  0  0  0  0  0  0
    3.9342   -0.1334    0.0000 C   0  0  0  0  0  0  0  0  0  0  0  0
    5.2352   -0.8800    0.0000 C   0  0  0  0  0  0  0  0  0  0  0  0
    6.5323   -0.1266    0.0000 C   0  0  0  0  0  3  0  0  0  0  0  0
    6.9167    1.3233    0.0000 N   0  0  0  0  0  0  0  0  0  0  0  0
    8.3666    0.9388    0.0000 C   0  0  0  0  0  3  0  0  0  0  0  0
    9.6637    1.6922    0.0000 C   0  0  0  0  0  0  0  0  0  0  0  0
   10.9647    0.9456    0.0000 O   0  0  0  0  0  0  0  0  0  0  0  0
    7.9822   -0.5111    0.0000 C   0  0  0  0  0  3  0  0  0  0  0  0
    8.7356   -1.8081    0.0000 O   0  0  0  0  0  0  0  0  0  0  0  0
  1  2  1  0
  2  3  1  0
  3  4  1  0
  3  5  1  0
  5  6  1  0
  6  7  1  0
  6  8  1  0
  8  9  1  0
  9 10  1  0
 10 11  1  0
 11 12  1  0
 12 13  1  0
 13 14  1  0
 14 15  1  0
 15 16  1  0
 16 17  1  0
 17 18  1  0
 18 19  1  0
 19 20  1  0
 20 21  1  0
 19 22  1  0
 22 23  1  0
 22 17  1  0
M  RAD  3  17   2  19   2  22   2
M  END
>  <identifier>  (554) 
CNP0571119.0

>  <canonical_smiles>  (554) 
CCC(C)CC(O)CCCCCCCCC[C]1N[C](CO)[C]1O

>  <standard_inchi>  (554) 
InChI=1S/C19H36NO3/c1-3-15(2)13-16(22)11-9-7-5-4-6-8-10-12-17-19(23)18(14-21)20-17/h15-16,20-23H,3-14H2,1-2H3

>  <standard_inchi_key>  (554) 
LGKCMPIJDOGAHG-UHFFFAOYSA-N

>  <name>  (554) 
Penaresidin B

>  <iupac_name>  (554) 
nan

>  <annotation_level>  (554) 
5

>  <total_atom_count>  (554) 
59

>  <heavy_atom_count>  (554) 
23

>  <molecular_weight>  (554) 
326.5

>  <exact_molecular_weight>  (554) 
326.26952

>  <molecular_formula>  (554) 
C19H36NO3

>  <alogp>  (554) 
3.86

>  <topological_polar_surface_area>  (554) 
72.72

>  <rotatable_bond_count>  (554) 
14

>  <hydrogen_bond_acceptors>  (554) 
4

>  <hydrogen_bond_donors>  (554) 
4

>  <hydrogen_bond_acceptors_lipinski>  (554) 
4

>  <hydrogen_bond_donors_lipinski>  (554) 
4

>  <lipinski_rule_of_five_violations>  (554) 
0

>  <aromatic_rings_count>  (554) 
0

>  <qed_drug_likeliness>  (554) 
0.37

>  <formal_charge>  (554) 
0

>  <fractioncsp3>  (554) 
0.84

>  <number_of_minimal_rings>  (554) 
1

>  <van_der_walls_volume>  (554) 
348.10

>  <contains_sugar>  (554) 
False

>  <contains_ring_sugars>  (554) 
False

>  <contains_linear_sugars>  (554) 
False

>  <murcko_framework>  (554) 
N1CCC1

>  <np_likeness>  (554) 
1.04

>  <chemical_class>  (554) 
Azetidines

>  <chemical_sub_class>  (554) 
Azetidines

>  <chemical_super_class>  (554) 
Organoheterocyclic compounds

>  <direct_parent_classification>  (554) 
Azetidines

>  <np_classifier_pathway>  (554) 
nan

>  <np_classifier_superclass>  (554) 
nan

>  <np_classifier_class>  (554) 
nan

>  <np_classifier_is_glycoside>  (554) 
False

>  <organisms>  (554) 
Monanchora arbuscula

>  <collections>  (554) 
BIOFACQUIM

>  <dois>  (554) 
10.3390/molecules28020606

>  <synonyms>  (554) 
Penaresidin B

>  <cas>  (554) 
nan

$$$$

     RDKit          2D

 18 17  0  0  0  0  0  0  0  0999 V2000
  -10.9048   -0.2250    0.0000 C   0  0  0  0  0  0  0  0  0  0  0  0
   -9.5900    0.4970    0.0000 C   0  0  0  0  0  0  0  0  0  0  0  0
   -8.3073   -0.2806    0.0000 C   0  0  0  0  0  0  0  0  0  0  0  0
   -6.9925    0.4414    0.0000 C   0  0  0  0  0  0  0  0  0  0  0  0
   -5.7098   -0.3362    0.0000 C   0  0  0  0  0  0  0  0  0  0  0  0
   -4.3950    0.3858    0.0000 C   0  0  0  0  0  0  0  0  0  0  0  0
   -3.1124   -0.3918    0.0000 C   0  0  0  0  0  0  0  0  0  0  0  0
   -1.7976    0.3302    0.0000 C   0  0  0  0  0  0  0  0  0  0  0  0
   -0.5149   -0.4474    0.0000 C   0  0  0  0  0  0  0  0  0  0  0  0
    0.7999    0.2746    0.0000 C   0  0  0  0  0  0  0  0  0  0  0  0
    2.0826   -0.5030    0.0000 C   0  0  0  0  0  0  0  0  0  0  0  0
    3.3974    0.2190    0.0000 C   0  0  0  0  0  0  0  0  0  0  0  0
    4.6801   -0.5586    0.0000 C   0  0  0  0  0  0  0  0  0  0  0  0
    5.9949    0.1634    0.0000 C   0  0  0  0  0  0  0  0  0  0  0  0
    7.2776   -0.6142    0.0000 C   0  0  0  0  0  0  0  0  0  0  0  0
    8.5924    0.1078    0.0000 C   0  0  0  0  0  0  0  0  0  0  0  0
    8.6245    1.6075    0.0000 O   0  0  0  0  0  0  0  0  0  0  0  0
    9.8751   -0.6698    0.0000 O   0  0  0  0  0  0  0  0  0  0  0  0
  1  2  1  0
  2  3  1  0
  3  4  1  0
  4  5  1  0
  5  6  1  0
  6  7  1  0
  7  8  1  0
  8  9  1  0
  9 10  1  0
 10 11  1  0
 11 12  1  0
 12 13  1  0
 13 14  1  0
 14 15  1  0
 15 16  1  0
 16 17  2  0
 16 18  1  0
M  END
>  <identifier>  (555) 
CNP0420987.0

>  <canonical_smiles>  (555) 
CCCCCCCCCCCCCCCC(=O)O

>  <standard_inchi>  (555) 
InChI=1S/C16H32O2/c1-2-3-4-5-6-7-8-9-10-11-12-13-14-15-16(17)18/h2-15H2,1H3,(H,17,18)

>  <standard_inchi_key>  (555) 
IPCSVZSSVZVIGE-UHFFFAOYSA-N

>  <name>  (555) 
palmitic acid

>  <iupac_name>  (555) 
palmitic acid

>  <annotation_level>  (555) 
5

>  <total_atom_count>  (555) 
50

>  <heavy_atom_count>  (555) 
18

>  <molecular_weight>  (555) 
256.43

>  <exact_molecular_weight>  (555) 
256.24023

>  <molecular_formula>  (555) 
C16H32O2

>  <alogp>  (555) 
5.55

>  <topological_polar_surface_area>  (555) 
37.30

>  <rotatable_bond_count>  (555) 
14

>  <hydrogen_bond_acceptors>  (555) 
1

>  <hydrogen_bond_donors>  (555) 
1

>  <hydrogen_bond_acceptors_lipinski>  (555) 
1

>  <hydrogen_bond_donors_lipinski>  (555) 
1

>  <lipinski_rule_of_five_violations>  (555) 
1

>  <aromatic_rings_count>  (555) 
0

>  <qed_drug_likeliness>  (555) 
0.41

>  <formal_charge>  (555) 
0

>  <fractioncsp3>  (555) 
0.94

>  <number_of_minimal_rings>  (555) 
0

>  <van_der_walls_volume>  (555) 
288.23

>  <contains_sugar>  (555) 
False

>  <contains_ring_sugars>  (555) 
False

>  <contains_linear_sugars>  (555) 
False

>  <murcko_framework>  (555) 
nan

>  <np_likeness>  (555) 
0.39

>  <chemical_class>  (555) 
Fatty Acyls

>  <chemical_sub_class>  (555) 
Fatty acids and conjugates

>  <chemical_super_class>  (555) 
Lipids and lipid-like molecules

>  <direct_parent_classification>  (555) 
Long-chain fatty acids

>  <np_classifier_pathway>  (555) 
Fatty acids

>  <np_classifier_superclass>  (555) 
Fatty Acids and Conjugates

>  <np_classifier_class>  (555) 
Branched fatty acids

>  <np_classifier_is_glycoside>  (555) 
False

>  <organisms>  (555) 
Aaptos aaptos|Acarus calamus|Acer spicatum|Aceriphyllum rossii|Achillea lycaonica|Achyranthes bidentata|Achyranthes fauriei|Achyranthes japonica|Aconitum koreanum|Aconitum mokchangense|Aconitum nevadense|Acorus calanus L.|Acorus gramineus|Acorus tatarinowii|Acritopappus prunifolius|Actaea dahurica|Actaea heracleifolia|Actaea simplex|Adiantum caudatum|Adiantum malesianum|Aegiceras corniculatum|Aeglopsis chevalieri|Aesculus hippocastanum L.|Agaricus integer|Agaricus silvaticus|Agastache rugosa|Agathosma mundtii|Agave atrovirens|Agnorhiza bolanderi|Agrimonia pilosa|Ajuga bracteosa|Akebia quinata|Akebia trifoliata|Albatrellus cristatus|Albizia Julibrissin|Albizia gummifera|Alectra parasitica|Alexandrium hiranoi|Alligator mississippiensis|Allium monspessulanum|Allium tuberosum|Alnus cordata|Aloe africana|Aloe deltoideodonta|Aloe ferox|Aloe spicata|Aloe vera|Alseodaphne corneri|Alstonia muelleriana|Alstonia undulifolia|Amentotaxus argotaenia|Amomum krervanh|Amomum longiligulare|Amomum villosum|Amomum xanthioides|Anaxagorea clavata|Andrographis paniculata|Anemarrhena asphodeloides|Angelica acutiloba|Angelica dahurica|Angelica decursiva|Angelica gigas|Angelica sinensis|Angelica taiwaniana|Anisomeles indica|Annona impressivenia|Anthemis aciphylla BOISS.var.discoidea BOISS|Aplophyllum dubium|Aplophyllum villosum|Aplysia californica|Aplysia punctata|Aquilaria agallochum|Aquilaria sinensis|Arabidopsis thaliana|Arachis hypogaea|Arachniodes exilis|Aralia taibaiensis|Araujia sericifera|Arbutus menziesii|Archaster typicus|Argania spinosa|Aria pallescens|Armoracia rusticana|Arnebia euchroma|Arnebia guttata|Arnica nevadensis|Artemisia annua L.|Artemisia anomala|Artemisia apiacea|Artemisia capillaries|Artemisia capillaris|Artemisia cina|Artemisia monogyna|Artemisia santonicum|Artemisia taurica|Asarum sieboldii|Aspergillus fischeri|Aspergillus fumigatus + microalgae|Aspergillus unguis|Aster tataricus|Asterias nipon|Asteriscus aquaticus|Astilbe chinensis|Astragalus atropubescens|Astragalus complanatus|Atractylodes lancea|Atractylodes macrocephala|Aucklandia lappa|Aulacocephalus temmincki|Baccharis reticularia|Bassia butyracea|Bauhinia purpurea|Beaucarnea recurvata|Bellium bellidioides|Benincasa hispida|Bersama yangambiensis|Betula platyphylla|Beyeria brevifolia|Bilis porci|Bistorta manshuriensis|Bistorta officinalis|Blatta orientalis|Boehmeria holosericea|Boehmeria tricuspis|Bos taurus|Boswellia carterii|Boswellia papyrifera|Botryosphaeria berengeriana|Brassica hirta|Brassica rapa subsp. oleifera|Brucea javanica|Bruguiera gymnorhiza|Bryum rutilans|Bubalus bubalis|Buchenavia tetraphylla|Bupleurum chinense|Bupleurum falcatum|Bupleurum scorzonerifolium|Bursaria spinosa|Buthus martensii|Calophyllum calaba|Calophyllum inophyllum|Campsis grandiflora|Cannabis sativa|Capparis ovata|Capsicum annuum|Carapax trionycis|Carduus getulus|Caro caprae|Caro caprae seu ovis|Caro verci|Carthamus tinctorius|Cassine papillosa|Castanea mollissima|Castanopsis sclerophylla|Caulis perillae|Caulis perillae frutescentis|Celtis australis|Centaurea arenaria|Centaurea calcitrapa|Centaurea paui|Centella asiatica|Centipeda minima|Cephalaria procera|Ceramium botryocarpum|Cereus chrysacanthus|Charpentiera obovata|Chelonia japonica|Chenopodium quinoa|Chlamydomonas reinhardtii|Chloranthus tianmushanensis|Chromodoris obsoleta|Chromolaena odorata|Chromolaena pulchella|Chrysanthemum indicum|Chrysanthemum x morifolium|Chrysanthemum zawadskii|Cibotium barometz|Cimicifuga foetida|Cinchona tucujensis|Cinnamomum aromaticum|Cinnamomum subavenium|Cinnamomum subavenium MIQ.|Cinnamomum tenuifolium|Cinnamosma madagascariensis|Cistus creticus|Citrullus lanatus|Citrullus lanatus subsp. vulgaris|Citrus maxima|Citrus medica var. sarcodactylis|Citrus paradisi|Citrus reticulata|Citrus unshiu|Cladonia evansii|Cladonia floerkeana|Clathria prolifera|Clematis chinensis|Clematis hexapetala|Clematis manshurica|Clematis terniflora var. mandshurica|Clitocybe subilludens|Clitoria ternata|Clonostachys rosea|Cnidium monieri|Cnidium monnieri|Cnidium officinale|Coccinella septempunctata|Coccus fagi|Cocos nucifera|Codiaeum variegatum|Coeloseira pacifica|Coleus esquirolii|Conocephalum japonicum|Consolida hohenackeri|Conus pulicarius|Coprinellus flocculosus|Cordyceps sinensis|Cordylanthus kingii|Coreopsis nodosa|Corium erinacei|Corium erinacei seu hemiechianus|Cornus officinalis|Cotoneaster simonsii|Cotylelobium scabriusculum|Craibiodendron yunnanese|Crassum intestinum|Crassum intestinum porci|Cratystylis conocephala|Cressa cretica|Crinipellis scabella|Crinum latifolium|Crocus sativus|Croton cajucara|Croton cumingii|Croton montevidensis|Croton tiglium|Cucurbita maxima|Curcuma kwangsiensis|Curcuma longa|Curcuma phaeocaulis|Curcuma wenyujin|Curcuma zedoaria|Curcurbita pepo L.|Cymbidium aloifolium|Cynanchum paniculatum|Cynara humilis|Cynomorium songaricum|Cyperus rotundus|Cystophora scalaris|Cystoseira caespitosa|Cytisus caramanicus|Cytisus ciliatus|Dacrydium cupressinum|Daiswa polyphylla|Daldinia concentrica|Daphnia magna|Datisca glomerata|Delesseria sanguinea|Delphinium dictyocarpum|Dendrobium candidum|Dendrobium chrysanthum|Dendrobium chrysotoxum|Dendrobium fimbriatum|Dendrobium loddigesii|Dendrobium nobile|Dendrosenecio kilimanjari|Descurainia sophia|Diascia cordata|Diascia integerrima|Diascia megathura|Diascia purpurea|Diascia vigilis|Dichotomopilus funicola|Dictyota binghamiae|Didymium bahiense|Dioscorea japonica|Dioscorea olfersiana|Dioscorea opposita|Dioscorea polystachya|Dioscorea prazeri|Dioscorea species|Diospyros abyssinica|Diospyros elliptifolia|Diospyros japonica|Diospyros kaki|Diospyros maritima|Diospyros peregrina|Diphylleia cymosa|Diploschistes cretaceus|Diploschistes violarius|Dipterocarpus alatus|Disynaphia halimifolia|Dolichopentas longiflora|Dolichos lablab|Domohinea perrieri|Doodia picta|Dracaena mannii|Drosera peltata|Drymaria cordata|Dysosma versipellis|Ecballium elaterium|Echinops amplexicaulis|Echinops grijsii|Echinosophora koreensis|Echinus microtuberculatus|Echiochilon pauciflorum|Eclipta prostrata|Elaeagnus angustifolia|Elaeis guineensis|Elegia deusta|Elettaria cardamomum|Eleutherococcus giraldii|Eleutherococcus senticosus|Elmerrillia papuana|Elsholtzia ciliata|Elysia timida|Embelia barbeyana|Embelia schimperi|Epaltes gariepina|Ephedra equisetina|Ephedra intermedia|Ephedra sinica|Eragrostis viscosa|Eremophila oppositifolia subsp. Angustifolia|Eria linearifolia|Erica glauca|Eriobotrya japonica|Erycibe schmidtii|Eucalyptus globulus|Eucommia ulmoides|Eunicella cavolinii|Euodia micrococca|Eupatorium fortunei|Eupatorium lindleyanum|Euphorbia humifusa|Euphorbia royleana|Euphydryas cynthia|FOOD SAKE|Fagus fusca|Ficus formosana|Flos mume|Foeniculum vulgare|Folium perillae|Forsteronia refracta|Forsythia suspensa|Forsythia suspense|Forsythia viridissima|Fridericia chica|Fructus choerospondiatis|Fructus schiandrae|Fructus syzygii|Fructus terminaliae billericae|Frullania monocera|Frullania solanderiana|Fumaria kraliki|Fusarium gibbosum|Ganoderma lucidum|Ganoderma sinense|Garcinia intermedia|Garcinia lancilimba|Gardenia fosbergii|Gardenia jasminoides|Gastrodia elata|Genista cinerea|Ginkgo biloba|Glehnia littoralis|Glycine max|Glycine tabacina|Glycine tomentella|Gmelina arborea|Goldfussia yunnanensis|Gossypium barbadense|Grewia mollis|Gutenbergia cordifolia|Gyalolechia fulgens|Gymnoascus reesii|Gymnocarpium robertianum|Gynoxys nitida|Gynura segetum|Haematococcus lacustris|Hansenia forbesii|Hansenia weberbaueriana|Hapalosiphon fontinalis|Haplophyllum acutifolium|Hedysarum multijugum|Helianthus annuus|Helichrysum auriceps|Helichrysum nudifolium|Heliotropium bovei|Heliotropium floridum|Helipterum propinquum|Henriettella fascicularis|Heterotheca grandiflora|Hippophae rhamnoides|Hippospongia equina|Homo sapiens|Homo sapiens (Skin)|Houttuynia cordata|Houttuynia cordata Thunb.|Hovenia acerba|Hubertia tomentosa|Humulus lupulus|Hydnocarpus annamensis|Hydrangea chinensis|Hyella caespitosa|Hyoscyamus niger|Hypholoma capnoides|Hypoxis nyasica|Hypoxylon rubiginosum|Ilex affinis|Illicium verum|Imperata cylindrica|Inula helenium|Iotrochota purpurea|Ipomoea purpurea|Isatis indigotica|Isatis tinctoria|Isoberlinia angolensis|Isodon japonica var. glaucocalyx|Isodon kameba|Isoplexis isabelliana|Jacobaea vulgaris|Jagera pseudorhus|Jasminum auriculatum|Jatropha curcus|Juglans nigra|Juglans regia|Juniperus serawschanica|Justicia heterocarpa T.ANDERS|Justicia trinervia|Kaempferia marginata|Kaempferia pulchra|Kaunia saltensis|Kielmeyera coriacea|Lactarius deliciosus var. deterrimus|Lactarius scrobiculatus|Lactobacillus delbrueckii subsp. bulgaricus|Ladeania juncea|Laminaria japonica|Lantana camara|Laurencia aldingensis|Laurencia obtusa|Laurentia longiflora|Leishmania major|Leitneria floridana|Lepidium apetalum|Lepidonia jonesii|Lepista irina|Lepraria citrina|Leucaena leucocephala|Leucas neufliseana|Libocedrus plumosa|Ligularia atroviolacea|Ligusticum chuanxiong|Ligusticum sinense|Ligustrum obtusifolium|Limnodynastes interioris|Linum catharticum|Linum usitatissimum|Litchi chinensis|Lithospermum erythrorhizon|Lithospermum officinale|Litsea glutinosa|Lobelia chinensis|Lobophytum denticulatum|Lonicera confusa|Lonicera fulvotomentosa|Lonicera hypoglauca|Lonicera japonica|Lonicera macranthoides|Lotus ucrainicus|Lycium barbarum|Lycium chinense|Lycopus lucidus|Lygodium japonicum|Macaranga sinensis|Machaerium scleroxylon|Madhuca longifolia|Magnolia obovata|Magnolia officinalis|Mandragora autumnalis|Mangifera indica|Mannia fragrans|Marmota marmota|Matayba oppositifolia|Matricaria suffruticosa|Mauremys reevesii|Meconopsis punicea|Medicago scutellata|Melanelixia fuliginosa subsp. glabratula|Melia azedarach|Melia azedarach var. toosendan|Meliosma simplicifolia|Mentha arvensis|Mentha canadensis|Merulius lacrymans|Mesua beccariana|Metapenaeus bennettae|Metridium senile|Michelia alba|Mikania scandens|Millettia pinnata|Mirabilis jalapa|Mkilua fragrans|Monodora angolensis|Morus alba|Morus alba var. atropurpurea|Morus alba var. multicaulis|Morus bombycis|Morus cathayana|Mosla chinensis|Musculus bungari|Myelobia smerintha|Myristica cagayanensis|Myristica fragrans|Myristica gigantea|Myrtillocactus geometrizan|Narcissus concolor|Nauclea officinalis|Nekemias grossedentata|Nelumbo nucifera|Neonotonia wightii|Nephthea armata|Nerium oleander|Nicotiana undulata|Nierembergia aristata|Nothofagus pumilio|Notholaena aschenborniana|Odixia angusta|Oenothera biennis|Oldenlandia diffusa|Oleum terebinthinae|Oncoba echinata|Ootheca mantidis|Ophidiaster ophidianus|Ophiocordyceps sinensis|Ophiolepis superba|Orbignya martiana|Oryza sativa|Oryza sativa cv. Heugjinjubyeo|Ostericum grosseserratum|Otostegia fruticosa|Paederia scandens|Paeonia lactiflora|Paeonia rockii|Panax ginseng|Panax notoginseng|Panax pseudo - ginseng var. notoginseng|Panax quinquefolium|Panax quinquefolius|Panax schinseng|Papilio phorcas|Parabenzoin trilobum|Paraixeris pinnatipartita|Paranephelius uniflorus|Pardachirus pavoninus|Parkia clappertoniana|Parthenium bipinnatifidum|Passiflora incarnata|Patrinia scabiosifolia|Patrinia villosa|Penicillium brocae|Penicillium urticae|Pericopsis angolensis|Perilla frutescens|Periploca forrestii|Periploca sepium|Petalostemon purpureum|Petrosia hebes|Petrosia volcano|Peucedanum graveolens|Peucedanum praeruptorum|Phaeotremella fagi|Pharbitis nil|Phebalium dentatum|Pheidole pallidula|Phlomis regelii|Phlomoides rotata|Phoenix paludosa|Phyllanthus emblica|Phyllanthus oligospermus|Phyllodium pulchellum|Pig's spinal cord|Pilocarpus goudotianus|Pinellia pedatisecta|Pinellia ternata|Pinus banksiana|Pinus elliottii|Pinus koraiensis|Piper auritum|Piper nigrum|Piper obliquum|Pittosporum undulatum|Plakinastrella clathrata|Plantago asiatica|Plantago depressa|Plantago major|Plastrum testudinis|Platonia insignis|Pleuronectes cynoglossus|Podocarpus amarus|Pogostemon cablin|Polyalthia nemoralis|Polycephalomyces nipponicus|Polygala glomerata|Polygala sibirica|Polygala tenuifolia|Polygonatum odoratum|Polygonum flaccidum|Polypodiodes niponica|Polysiphonia ferulacea|Poria cocos|Portulaca oleracea|Potebniamyces gallicola|Potentilla discolor|Prosopis glandulosa|Prunus armeniaca|Prunus avium|Prunus dulcis|Prunus laurocerasus|Prunus mume|Pseudoalteromonas luteoviolacea|Pseudogymnoascus pannorum|Pseudomonas chlororaphis|Pseudopterogorgia kallos|Pseudowintera colorata|Pteris prolifera|Pterocarpus grandiflorus|Pterocladiella tenuis|Ptilota pectinata|Pueraria montana var. lobata|Punica granatum|Purpura aperta|Pyrola japonica|Pyrosoma giganteum|Quercus aegilops|Quercus imbricaria|Quercus myrsinifolia|Radix chuanxiong|Radix cudraniae|Radix rumicis japonici|Ranunculus ternatus|Raphanus sativus|Reaumuria hirtella|Rehmannia glutinosa|Remijia bicolorata|Rennellia elliptica|Resina olibani|Resina olibani praparata|Rhabdophis tigrinus|Rhamnus japonica|Rhizobium phaseoli|Rhizoma chuanxiong|Rhizophora mucronata|Rhizoprionodon acutus|Rhodiola rosea L.|Rhododendron aureum|Rhytidoponera metallica|Rohdea chinensis|Rosa multiflora|Rosa transmorrisonensis|Rubrivivax gelatinosus|Ruellia rosea|Ruta pinnata|Saccharomyces cerevisiae|Saccharomyces pastori|Saccharothrix mutabilis|Salvia dorrii|Salvia hispanica|Salvia mirzayanii|Salvia munzii|Salvia officinalis|Samanea saman|Sarcococca vagans|Sargassum crassifolium J.Asgardh|Sargassum fusiforme|Sauromatum giganteum|Saussurea lappa|Saxifraga stolonifera|Saxifraga stolonifera Meerb.|Scaphium lychnophorum|Scorzonera hispanica|Scrophularia koelzii|Scutellaria balcalensis|Scutellaria barbata|Scutellaria glabra|Scutellaria lateriflora|Scutellaria woronowii|Scutia buxifolia|Securidaca inappendiculata|Senecio atratus|Senecio densiflorus|Senecio paludaffinis|Senecio scandens|Senecio squalidus|Senna alexandrina|Seriphidium cinum|Sesbania punicea|Sida veronicaefolia|Sigesbeckia orientalis|Silybum marianum|Simira eliezeriana|Sinopodophyllum hexandrum|Sipunculus nudus|Smilax china|Smilax glabra|Solanum andigena|Solanum transcaucasicum|Sonneratia alba|Sophora angustifolia|Sophora moorcroftiana|Sophora viciifolia|Spiracantha cornifolia|Spirodela polyrrhiza|Spongia bilamellata|Sporobolomyces odorus|Sraitia grosvenorii|Stenostomum lucidum|Stephania epigaea|Stephanitis rhododendri|Sterculia scaphigera|Sterculia setigera|Stevia polycephala|Stichopus horrens|Stiff silkworm|Streptomyces KM86-9B|Streptomyces althioticus|Streptomyces atratus|Streptomyces caelestis|Streptomyces caespitosus|Streptomyces flocculus|Streptomyces luteosporeus|Streptomyces niveiscabiei|Streptomyces parvisporogenes|Streptomyces platensis|Streptomyces rochei|Streptomyces saraceticus|Streptomyces sclerotialus|Streptomyces sp. AMA11|Streptomyces sp. CB-75|Streptomyces sp. JS520|Streptomyces sp. NP10|Streptomyces sp. SCA3-4|Streptomyces sp. mNP10|Streptomyces sp. mNP10_C12-2|Streptomyces sundarbansensis|Strychnos froesii|Stylocheilus longicaudus|Synoicum pulmonaria|Syphonota geographica|Tachigalia paniculata|Tamarix chinensis|Tanacetum cinerariifolium|Taraxacum borealisinense|Taraxacum coreanum|Taraxacum mongolicum|Taraxacum officinale|Taraxacum platycarpum|Targionia hypophylla|Taxodium mucronatum|Tecoma pentaphylla|Tephroseris integrifolia|Tephrosia procumbens|Terminalia chebula|Testis et penis canis familiaris|Teucrium depressum|Teucrium orientale|Thalictrum ichangense|Thermopsis mollis|Thymus piperella|Thymus quinquecostatus|Thymus vulgaris|Thyreoid sus domestica|Tilia cordata Mill.|Tomophagus colossus|Torilis japonica|Trachelospermum lucidum|Trachycarpus fortunei|Trapa japonica|Trichilia rubescens|Trichoderma citrinum|Trichosanthes kirilowii|Trichosanthes rosthornii|Trifolium pannonicum|Trigonella grandiflora|Tripolium pannonicum|Triticum aestivum|Tylophora ovata|Tylophora tanakae|Udotea petiolata|Ulmus americana|Ulva lactuca|Ulva prolifera|Umbilicaria cinereorufescens|Uvaria calamistrata|Uvaria dependens|Veltheimia viridifolia|Verbascum fruticulosum|Vernonia diffusa|Viburnum orientale|Vincetoxicum atratum|Vincetoxicum pycnostelma|Vincetoxicum versicolor|Viscum album|Viscum coloratum|Vitex madiensis|Vitex negundo|Vitex rotundifolia|Vitex trifolia|Vitis vinifera|Viviparus japonicus|Wedelia prostrata|Wikstroemia chamaedaphne|Wilcoxia viperina|Xanthium sibiricum|Xanthium strumarium|Xanthoria aureola|Xylopia aethiopica|Yarrowia lipolytica|Zanthoxylum bungeanum|Zanthoxylum nitidum|Zanthoxylum piperitum|Zanthoxylum schinifolium|Zingiber officinale|Ziziphus jujuba|Ziziphus jujuba var. spinosa

>  <collections>  (555) 
ANPDB|Australian natural products|BIOFACQUIM|CMAUP (cCollective molecular activities of useful plants)|ChEBI NPs|ChemSpider NPs|ConMedNP|DrugBankNP|EMNPD|ETM (Ethiopian Traditional Medicine) DB|Exposome-explorer|FooDB|GNPS (Global Natural Products Social Molecular Networking)|HIT (Herbal Ingredients Targets)|KNApSaCK|Latin America dataset|Marine Natural Products|Mitishamba database|NANPDB (Natural Products from Northern African Sources)|NPACT|NPASS|NPEdia|NuBBEDB|Phyto4Health|SANCDB|StreptomeDB|Super Natural II|Supernatural3|TCMDB-Taiwan (Traditional Chinese Medicine database)|TCMID (Traditional Chinese Medicine Integrated Database)|TIPdb (database of Taiwan indigenous plants)|UEFS (Natural Products Databse of the UEFS)|UNPD (Universal Natural Products Database)|VietHerb|Watermelon

>  <dois>  (555) 
10.1002/(SICI)1097-0231(20000415)14:7<608::AID-RCM918>3.0.CO;2-4|10.1002/EJLT.200900231|10.1002/ejlt.201000080|10.1002/ejlt.201000369|10.1002/ejlt.201100207|10.1002/jsfa.2731|10.1007/BF00711898|10.1007/BF02976766|10.1007/s10600-011-9926-0|10.1007/s10886-010-9846-7|10.1007/s11745-010-3483-3|10.1007/s11746-009-1435-y|10.1007/s11746-010-1589-7|10.1007/s13205-018-1556-9|10.1016/S0254-6299(15)30424-5|10.1016/j.chroma.2010.10.052|10.1016/j.foodchem.2004.05.018|10.1016/j.foodres.2018.04.064|10.1016/j.foodres.2020.109416|10.1016/j.indcrop.2010.04.020|10.1016/j.jep.2022.115738|10.1016/j.micpath.2017.10.010|10.1016/j.micres.2018.01.003|10.1016/j.renene.2010.10.009|10.1016/j.scienta.2010.10.027|10.1021/ac1006552|10.1021/acs.jnatprod.0c00070|10.1021/acs.jnatprod.6b00823|10.1021/ie801365k|10.1021/jf00120a031|10.1021/jf034365p|10.1021/jf0706979|10.1021/jf071801p|10.1021/jf803627t|10.1021/np900068t|10.1038/nbt.2488|10.1051/CTV/20163101031|10.1071/ch9610135|10.1080/09637480410001725175|10.1080/10408390802544520|10.1080/14786410500045960|10.1080/14786419.2014.883396|10.1089/ind.2013.0013|10.1111/1750-3841.15463|10.1111/j.1753-4887.2012.00478.x|10.1111/tpj.12747|10.1155/2017/2840718|10.1371/journal.pone.0016957|10.1371/journal.pone.0073076|10.1371/journal.pone.0113497|10.1515/znc-2016-0003|10.3329/bjb.v37i1.1568|10.3389/fmicb.2017.02704|10.3389/fmicb.2018.01302|10.3389/fmicb.2019.01390|10.3390/foods9060770|10.3390/molecules19022684|10.3390/molecules23123219|10.3390/molecules25010011|10.3390/molecules27020483|10.4103/0973-1296.99287|10.5219/332|10.5650/jos.ess17006|10.5650/jos.ess19091|10.5650/jos.ess20128|10.5650/jos.ess21076|10.7717/peerj.5832

>  <synonyms>  (555) 
Hexadecanoic acid|57-10-3|Cetylic acid|palmitate|Hexadecylic acid|1-Pentadecanecarboxylic acid|Hydrofol|n-Hexadecoic acid|Palmitinic acid|hexaectylic acid|1-Hexyldecanoic Acid|Industrene 4516|Emersol 140|Hystrene 8016|hexadecoic acid|Palmitinsaeure|Palmitic acid| pure|Palmitic acid 95%|Kortacid 1698|FEMA No. 2832|Loxiol EP 278|Palmitic acid (natural)|Hydrofol Acid 1690|Prifac 2960|C16:0|HSDB 5001|Pristerene 4934|Edenor C16|NSC 5030|AI3-01594|Lunac P 95KC|Lunac P 98|CCRIS 5443|CHEBI:15756|NSC-5030|EINECS 200-312-9|UNII-2V16EO95H1|FA 16:0|BRN 0607489|Palmitic acid (NF)|DTXSID2021602|Glycon P-45|IMEX C 1498|2V16EO95H1|Hexadecanoic acid (9CI)|MFCD00002747|67701-02-4|Palmitic acid (7CI|8CI)|CHEMBL82293|DTXCID101602|CH3-CH214-COOH|EC 200-312-9|4-02-00-01157 (Beilstein Handbook Reference)|n-hexadecoate|LMFA01010001|PA 900|EDENOR C 16-98-100|FA 1695|SURFAXIN COMPONENT PALMITIC ACID|1-hexyldecanoate|NCGC00164358-01|LUCINACTANT COMPONENT PALMITIC ACID|1219802-61-5|pentadecanecarboxylate|Hexadecanoic acid 10 microg\/mL in Acetonitrile|HEXADECANOIC-11|11|12|12-D4 ACID|PALMITIC ACID (II)|PALMITIC ACID II|PALMITIC ACID (MART.)|CH3-(CH2)14-COOH|Palmitic acid; Hexadecanoic acid|PLM|palmic acid|Hexadecanoate (n-C16:0)|PALMITIC ACID (EP MONOGRAPH)|Acid| Palmitic|CAS-57-10-3|Acid| Hexadecanoic|SR-01000944716|Palmitic acid USAN:NF|Hexadecoate|Palmitinate|palmitic-acid|palmitoic acid|Aethalic acid|Hexadecanoic acid Palmitic acid|2hmb|2hnx|Palmitic acid_jeyam|n-Hexadecyclic Acid|fatty acid 16:0|Palmitic Acid| FCC|Palmitic acid_RaGuSa|Univol U332|Hexadecanoic acid anion|Hexadecanoic--d5 Acid|3v2q|Palmitic acid| >=99%|bmse000590|Epitope ID:141181|CETYL ACID VANDF|SCHEMBL6177|PALMITIC ACID DSC|PALMITIC ACID FCC|PALMITIC ACID FHFI|PALMITIC ACID HSDB|PALMITIC ACID USAN|FAT|WLN: QV15|1-MONOPALMITIN_met001|P5585_SIGMA|PALMITIC ACID VANDF|GTPL1055|QSPL 166|PALMITIC ACID USP-RS|PALMITIC ACID WHO-DD|(1(1)(3)C)hexadecanoic acid|1b56|HMS3649N08|Palmitic acid| analytical standard|Palmitic acid| BioXtra| >=99%|Palmitic acid| Grade II| ~95%|HY-N0830|Palmitic acid| natural| 98%| FG|Tox21_112105|Tox21_201671|Tox21_302966|AC9381|BBL011563|BDBM50152850|s3794|STL146733|Palmitic acid| >=95%| FCC| FG|AKOS005720983|CCG-267027|CR-0047|DB03796|Palmitic acid| for synthesis| 98.0%|NCGC00256424-01|NCGC00259220-01|BP-27917|Palmitic acid| purum| >=98.0% (GC)|SY006518|CS-0009861|NS00008548|P0002|P1145|Palmitic acid| SAJ first grade| >=95.0%|EN300-19603|C00249|D05341|Palmitic acid| Vetec(TM) reagent grade| 98%|PALMITIC ACID (CONSTITUENT OF SPIRULINA)|Palmitic acid| >=98% palmitic acid basis (GC)|A831313|Q209727|PALMITIC ACID (CONSTITUENT OF FLAX SEED OIL)|PALMITIC ACID (CONSTITUENT OF SAW PALMETTO)|BA71C79B-C9B1-451A-A5BE-B480B5CC7D0C|F0001-1488|Z104474418|PALMITIC ACID (CONSTITUENT OF EVENING PRIMROSE OIL)|Palmitic acid| certified reference material| TraceCERT(R)|Palmitic acid| European Pharmacopoeia (EP) Reference Standard|Palmitic acid| United States Pharmacopeia (USP) Reference Standard|Palmitic acid| Pharmaceutical Secondary Standard; Certified Reference Material|Sodium Palmitate| Palmitic acid sodium salt| Sodium hexadecanoate| Sodium pentadecanecarboxylate| HSDB 759|Palmitic acid (16:0)|tridecanoic acid|n-hexadecanoic acid|15-carboxypentadecane-3|5|7-triide

>  <cas>  (555) 
57-10-3|67701-02-4

$$$$

     RDKit          2D

 22 21  0  0  0  0  0  0  0  0999 V2000
  -13.2890   -0.3262    0.0000 C   0  0  0  0  0  0  0  0  0  0  0  0
  -11.9834    0.4123    0.0000 C   0  0  0  0  0  0  0  0  0  0  0  0
  -10.6910   -0.3491    0.0000 C   0  0  0  0  0  0  0  0  0  0  0  0
   -9.3854    0.3894    0.0000 C   0  0  0  0  0  0  0  0  0  0  0  0
   -8.0931   -0.3720    0.0000 C   0  0  0  0  0  0  0  0  0  0  0  0
   -6.7875    0.3666    0.0000 C   0  0  0  0  0  0  0  0  0  0  0  0
   -5.4951   -0.3948    0.0000 C   0  0  0  0  0  0  0  0  0  0  0  0
   -4.1895    0.3437    0.0000 C   0  0  0  0  0  0  0  0  0  0  0  0
   -2.8971   -0.4177    0.0000 C   0  0  0  0  0  0  0  0  0  0  0  0
   -1.5915    0.3208    0.0000 C   0  0  0  0  0  0  0  0  0  0  0  0
   -0.2991   -0.4406    0.0000 C   0  0  0  0  0  0  0  0  0  0  0  0
    1.0065    0.2980    0.0000 C   0  0  0  0  0  0  0  0  0  0  0  0
    2.2989   -0.4634    0.0000 C   0  0  0  0  0  0  0  0  0  0  0  0
    3.6044    0.2751    0.0000 C   0  0  0  0  0  0  0  0  0  0  0  0
    4.8968   -0.4863    0.0000 C   0  0  0  0  0  0  0  0  0  0  0  0
    6.2024    0.2522    0.0000 C   0  0  0  0  0  0  0  0  0  0  0  0
    6.2156    1.7522    0.0000 O   0  0  0  0  0  0  0  0  0  0  0  0
    7.4948   -0.5092    0.0000 O   0  0  0  0  0  0  0  0  0  0  0  0
    8.8004    0.2294    0.0000 C   0  0  0  0  0  0  0  0  0  0  0  0
   10.0928   -0.5320    0.0000 C   0  0  0  0  0  0  0  0  0  0  0  0
   11.3984    0.2065    0.0000 C   0  0  0  0  0  0  0  0  0  0  0  0
   12.6908   -0.5549    0.0000 C   0  0  0  0  0  0  0  0  0  0  0  0
  1  2  1  0
  2  3  1  0
  3  4  1  0
  4  5  1  0
  5  6  1  0
  6  7  1  0
  7  8  1  0
  8  9  1  0
  9 10  1  0
 10 11  1  0
 11 12  1  0
 12 13  1  0
 13 14  1  0
 14 15  1  0
 15 16  1  0
 16 17  2  0
 16 18  1  0
 18 19  1  0
 19 20  1  0
 20 21  1  0
 21 22  1  0
M  END
>  <identifier>  (556) 
CNP0253124.0

>  <canonical_smiles>  (556) 
CCCCCCCCCCCCCCCC(=O)OCCCC

>  <standard_inchi>  (556) 
InChI=1S/C20H40O2/c1-3-5-7-8-9-10-11-12-13-14-15-16-17-18-20(21)22-19-6-4-2/h3-19H2,1-2H3

>  <standard_inchi_key>  (556) 
GLYJVQDYLFAUFC-UHFFFAOYSA-N

>  <name>  (556) 
BUTYL PALMITATE

>  <iupac_name>  (556) 
butyl hexadecanoate

>  <annotation_level>  (556) 
5

>  <total_atom_count>  (556) 
62

>  <heavy_atom_count>  (556) 
22

>  <molecular_weight>  (556) 
312.54

>  <exact_molecular_weight>  (556) 
312.30283

>  <molecular_formula>  (556) 
C20H40O2

>  <alogp>  (556) 
6.81

>  <topological_polar_surface_area>  (556) 
26.30

>  <rotatable_bond_count>  (556) 
17

>  <hydrogen_bond_acceptors>  (556) 
2

>  <hydrogen_bond_donors>  (556) 
0

>  <hydrogen_bond_acceptors_lipinski>  (556) 
2

>  <hydrogen_bond_donors_lipinski>  (556) 
0

>  <lipinski_rule_of_five_violations>  (556) 
1

>  <aromatic_rings_count>  (556) 
0

>  <qed_drug_likeliness>  (556) 
0.22

>  <formal_charge>  (556) 
0

>  <fractioncsp3>  (556) 
0.95

>  <number_of_minimal_rings>  (556) 
0

>  <van_der_walls_volume>  (556) 
356.14

>  <contains_sugar>  (556) 
False

>  <contains_ring_sugars>  (556) 
False

>  <contains_linear_sugars>  (556) 
False

>  <murcko_framework>  (556) 
nan

>  <np_likeness>  (556) 
0.15

>  <chemical_class>  (556) 
Fatty Acyls

>  <chemical_sub_class>  (556) 
Fatty acid esters

>  <chemical_super_class>  (556) 
Lipids and lipid-like molecules

>  <direct_parent_classification>  (556) 
Fatty acid esters

>  <np_classifier_pathway>  (556) 
Fatty acids

>  <np_classifier_superclass>  (556) 
Fatty esters

>  <np_classifier_class>  (556) 
Wax monoesters

>  <np_classifier_is_glycoside>  (556) 
False

>  <organisms>  (556) 
Arabidopsis thaliana|Herba ecliptae prostratae|Matayba oppositifolia|Nephrolepis cordifolia|Sraitia grosvenorii

>  <collections>  (556) 
Australian natural products|BIOFACQUIM|CMAUP (cCollective molecular activities of useful plants)|ChEBI NPs|FooDB|NPASS|Super Natural II|TCMID (Traditional Chinese Medicine Integrated Database)|UNPD (Universal Natural Products Database)

>  <dois>  (556) 
10.1016/j.jep.2022.115738

>  <synonyms>  (556) 
111-06-8|Butyl hexadecanoate|Hexadecanoic acid| butyl ester|n-Butyl palmitate|Palmitic acid| butyl ester|PALMITIC ACID N-BUTYL ESTER|Palmitic Acid Butyl Ester|DUQ37A5I26|NSC-4815|UNII-DUQ37A5I26|Butyl ester of hexadecanoic acid|NSC 4815|EINECS 203-829-8|MFCD00053738|AI3-07959|SCHEMBL284459|DTXSID3059395|BUTYL PALMITATE USP-RS|CHEBI:132549|STL268849|AKOS016358294|HY-W127338|palmitic acid N-butyl ester| AldrichCPR|AS-19620|CS-0185578|NS00019868|P0649|D91992|Q24735748

>  <cas>  (556) 
111-06-8

$$$$

     RDKit          2D

 25 24  0  0  0  0  0  0  0  0999 V2000
  -15.5885   -0.3600    0.0000 C   0  0  0  0  0  0  0  0  0  0  0  0
  -14.2894    0.3900    0.0000 C   0  0  0  0  0  0  0  0  0  0  0  0
  -12.9904   -0.3600    0.0000 C   0  0  0  0  0  0  0  0  0  0  0  0
  -11.6913    0.3900    0.0000 C   0  0  0  0  0  0  0  0  0  0  0  0
  -10.3923   -0.3600    0.0000 C   0  0  0  0  0  0  0  0  0  0  0  0
   -9.0933    0.3900    0.0000 C   0  0  0  0  0  0  0  0  0  0  0  0
   -7.7942   -0.3600    0.0000 C   0  0  0  0  0  0  0  0  0  0  0  0
   -6.4952    0.3900    0.0000 C   0  0  0  0  0  0  0  0  0  0  0  0
   -5.1962   -0.3600    0.0000 C   0  0  0  0  0  0  0  0  0  0  0  0
   -3.8971    0.3900    0.0000 C   0  0  0  0  0  0  0  0  0  0  0  0
   -2.5981   -0.3600    0.0000 C   0  0  0  0  0  0  0  0  0  0  0  0
   -1.2990    0.3900    0.0000 C   0  0  0  0  0  0  0  0  0  0  0  0
    0.0000   -0.3600    0.0000 C   0  0  0  0  0  0  0  0  0  0  0  0
    1.2990    0.3900    0.0000 C   0  0  0  0  0  0  0  0  0  0  0  0
    2.5981   -0.3600    0.0000 C   0  0  0  0  0  0  0  0  0  0  0  0
    3.8971    0.3900    0.0000 C   0  0  0  0  0  0  0  0  0  0  0  0
    5.1962   -0.3600    0.0000 C   0  0  0  0  0  0  0  0  0  0  0  0
    6.4952    0.3900    0.0000 C   0  0  0  0  0  0  0  0  0  0  0  0
    7.7942   -0.3600    0.0000 C   0  0  0  0  0  0  0  0  0  0  0  0
    9.0933    0.3900    0.0000 C   0  0  0  0  0  0  0  0  0  0  0  0
   10.3923   -0.3600    0.0000 C   0  0  0  0  0  0  0  0  0  0  0  0
   11.6913    0.3900    0.0000 C   0  0  0  0  0  0  0  0  0  0  0  0
   12.9904   -0.3600    0.0000 C   0  0  0  0  0  0  0  0  0  0  0  0
   14.2894    0.3900    0.0000 C   0  0  0  0  0  0  0  0  0  0  0  0
   15.5885   -0.3600    0.0000 C   0  0  0  0  0  0  0  0  0  0  0  0
  1  2  1  0
  2  3  1  0
  3  4  1  0
  4  5  1  0
  5  6  1  0
  6  7  1  0
  7  8  1  0
  8  9  1  0
  9 10  1  0
 10 11  1  0
 11 12  1  0
 12 13  1  0
 13 14  1  0
 14 15  1  0
 15 16  1  0
 16 17  1  0
 17 18  1  0
 18 19  1  0
 19 20  1  0
 20 21  1  0
 21 22  1  0
 22 23  1  0
 23 24  1  0
 24 25  1  0
M  END
>  <identifier>  (557) 
CNP0328343.0

>  <canonical_smiles>  (557) 
CCCCCCCCCCCCCCCCCCCCCCCCC

>  <standard_inchi>  (557) 
InChI=1S/C25H52/c1-3-5-7-9-11-13-15-17-19-21-23-25-24-22-20-18-16-14-12-10-8-6-4-2/h3-25H2,1-2H3

>  <standard_inchi_key>  (557) 
YKNWIILGEFFOPE-UHFFFAOYSA-N

>  <name>  (557) 
PENTACOSANE

>  <iupac_name>  (557) 
pentacosane

>  <annotation_level>  (557) 
5

>  <total_atom_count>  (557) 
77

>  <heavy_atom_count>  (557) 
25

>  <molecular_weight>  (557) 
352.69

>  <exact_molecular_weight>  (557) 
352.4069

>  <molecular_formula>  (557) 
C25H52

>  <alogp>  (557) 
10.00

>  <topological_polar_surface_area>  (557) 
0.00

>  <rotatable_bond_count>  (557) 
22

>  <hydrogen_bond_acceptors>  (557) 
0

>  <hydrogen_bond_donors>  (557) 
0

>  <hydrogen_bond_acceptors_lipinski>  (557) 
0

>  <hydrogen_bond_donors_lipinski>  (557) 
0

>  <lipinski_rule_of_five_violations>  (557) 
1

>  <aromatic_rings_count>  (557) 
0

>  <qed_drug_likeliness>  (557) 
0.17

>  <formal_charge>  (557) 
0

>  <fractioncsp3>  (557) 
1.00

>  <number_of_minimal_rings>  (557) 
0

>  <van_der_walls_volume>  (557) 
426.03

>  <contains_sugar>  (557) 
False

>  <contains_ring_sugars>  (557) 
False

>  <contains_linear_sugars>  (557) 
False

>  <murcko_framework>  (557) 
nan

>  <np_likeness>  (557) 
0.10

>  <chemical_class>  (557) 
Saturated hydrocarbons

>  <chemical_sub_class>  (557) 
Alkanes

>  <chemical_super_class>  (557) 
Hydrocarbons

>  <direct_parent_classification>  (557) 
Alkanes

>  <np_classifier_pathway>  (557) 
Fatty acids

>  <np_classifier_superclass>  (557) 
Fatty acyls

>  <np_classifier_class>  (557) 
Hydrocarbons

>  <np_classifier_is_glycoside>  (557) 
False

>  <organisms>  (557) 
Actaea dahurica|Actaea heracleifolia|Actaea simplex|Aegiceras corniculatum|Agaricus integer|Agaricus silvaticus|Ajuga bracteosa|Allium monspessulanum|Anopterus glandulosus|Anthemis aciphylla BOISS.var.discoidea BOISS|Apis mellifera|Aquilaria agallochum|Aquilaria sinensis|Arbutus menziesii|Artemisia annua|Artemisia argyi|Artemisia montana|Artemisia princeps|Artemisia taurica|Bistorta manshuriensis|Bistorta officinalis|Brassica hirta|Bridelia balansae|Bruguiera gymnorhiza|Buchenavia tetraphylla|Bursaphelenchus xylophilus|Cannabis sativa|Ceramium botryocarpum|Cereus chrysacanthus|Chromodoris obsoleta|Chromolaena opadoclinia|Chrysanthemum indicum|Chrysanthemum x morifolium|Cimicifuga foetida|Cinnamosma madagascariensis|Cistus creticus|Citrus aurantium|Citrus limetta|Cladonia grayi|Clerodendron cyrtophyllum|Clusia spiritu-sanctensis|Coeloseira pacifica|Crocus sativus|Cynanchum stauntoni|Cynomorium songaricum|Cystoseira algeriensis|Daldinia concentrica|Dendrobium draconis|Diospyros heterotricha|Echinacea angustifolia|Echiochilon pauciflorum|Ecklonia kurome|Elaeocarpus dolichostylus|Euphorbia hermentiana|Flos mume|Fructus hippophae|Frullania scandens|Fumaria kraliki|Gomphrena globosa|Helichrysum nudifolium|Hyella caespitosa|Hypericum perforatum|Hypoxis nyasica|Isoberlinia angolensis|Ixora chinensis|Jaborosa odonelliana|Justicia trinervia|Laggera pterodonta|Lamna ditropis|Lepista irina|Lilium medeoloides|Limonia crenulata|Lycopus lucidus|Macaranga sinensis|Matayba oppositifolia|Melodinus insulae-pinorum|Mirabilis jalapa|Mucor plumbeus|Murraya paniculata|Myrcianthes pungens|Odontoschisma denudatum|Origanum vulgare|Ormosia jamaicensis|Otostegia fruticosa|Panax ginseng|Paranephelius uniflorus|Pardachirus pavoninus|Paris tetraphylla|Periploca forrestii|Persica vulgaris|Petalostemon purpureum|Phoebe porosa|Plakinastrella clathrata|Podocarpus amarus|Potebniamyces gallicola|Primula viscosa|Prunus persica|Pseudomonas chlororaphis|Ptilota pectinata|Rhododendron aureum|Roccella tinctoria|Saccharina japonica|Saccharothrix mutabilis|Senna alexandrina|Sinularia rigida|Sipunculus nudus|Solenopsis geminata|Sonchus asper|Sonneratia alba|Sophora viciifolia|Stenocarpus sinuatus|Stichopus horrens|Stizolophus balsamita|Streptomyces atratus|Streptomyces caelestis|Tephroseris integrifolia|Teucrium lepicephalum|Teucrium orientale|Teucrium polium subsp. polium|Trichoderma citrinum|Typha angustata|Typha angustifolia|Ulva prolifera|Umbilicaria cinereorufescens|Veltheimia viridifolia|Vincetoxicum glaucescens|Vincetoxicum stauntonii|Viscum album|Viscum coloratum|Xylopia aethiopica

>  <collections>  (557) 
ANPDB|Australian natural products|BIOFACQUIM|CMAUP (cCollective molecular activities of useful plants)|EMNPD|FooDB|KNApSaCK|Latin America dataset|NANPDB (Natural Products from Northern African Sources)|NPASS|Super Natural II|TCMDB-Taiwan (Traditional Chinese Medicine database)|TCMID (Traditional Chinese Medicine Integrated Database)|TIPdb (database of Taiwan indigenous plants)|UNPD (Universal Natural Products Database)|VietHerb|ZINC NP

>  <dois>  (557) 
10.1016/j.indcrop.2010.05.011|10.1016/j.jep.2022.115738|10.1186/2193-1801-3-253|10.5650/jos.ess21076

>  <synonyms>  (557) 
n-Pentacosane|629-99-2|N-PENTACOSANE-D52|UNII-BON9H94Y8V|BON9H94Y8V|121578-13-0|EINECS 211-123-6|NSC 158663|AI3-36478|DTXSID2060882|CHEBI:32938|HSDB 8355|MFCD00009353|Pentacosane| analytical standard|CH3-(CH2)23-CH3|CH3-CH223-CH3|Pentacosane| 99%|DTXCID7043584|HY-N7494|LMFA11000582|AKOS015843190|LS-15134|Pentacosane; NSC 158663; n-Pentacosane|DB-054365|CS-0130240|NS00010787|P0139|D91907|Q151007|2A4605C9-A088-458C-AD58-AA987FF6C408|pentacosane

>  <cas>  (557) 
629-99-2|121578-13-0

$$$$

     RDKit          2D

 43 42  0  0  0  0  0  0  0  0999 V2000
  -27.2798   -0.3663    0.0000 C   0  0  0  0  0  0  0  0  0  0  0  0
  -25.9808    0.3837    0.0000 C   0  0  0  0  0  0  0  0  0  0  0  0
  -24.6817   -0.3663    0.0000 C   0  0  0  0  0  0  0  0  0  0  0  0
  -23.3827    0.3837    0.0000 C   0  0  0  0  0  0  0  0  0  0  0  0
  -22.0836   -0.3663    0.0000 C   0  0  0  0  0  0  0  0  0  0  0  0
  -20.7846    0.3837    0.0000 C   0  0  0  0  0  0  0  0  0  0  0  0
  -19.4856   -0.3663    0.0000 C   0  0  0  0  0  0  0  0  0  0  0  0
  -18.1865    0.3837    0.0000 C   0  0  0  0  0  0  0  0  0  0  0  0
  -16.8875   -0.3663    0.0000 C   0  0  0  0  0  0  0  0  0  0  0  0
  -15.5885    0.3837    0.0000 C   0  0  0  0  0  0  0  0  0  0  0  0
  -14.2894   -0.3663    0.0000 C   0  0  0  0  0  0  0  0  0  0  0  0
  -12.9904    0.3837    0.0000 C   0  0  0  0  0  0  0  0  0  0  0  0
  -11.6913   -0.3663    0.0000 C   0  0  0  0  0  0  0  0  0  0  0  0
  -10.3923    0.3837    0.0000 C   0  0  0  0  0  0  0  0  0  0  0  0
   -9.0933   -0.3663    0.0000 C   0  0  0  0  0  0  0  0  0  0  0  0
   -7.7942    0.3837    0.0000 C   0  0  0  0  0  0  0  0  0  0  0  0
   -6.4952   -0.3663    0.0000 C   0  0  0  0  0  0  0  0  0  0  0  0
   -5.1962    0.3837    0.0000 C   0  0  0  0  0  0  0  0  0  0  0  0
   -3.8971   -0.3663    0.0000 C   0  0  0  0  0  0  0  0  0  0  0  0
   -2.5981    0.3837    0.0000 C   0  0  0  0  0  0  0  0  0  0  0  0
   -1.2990   -0.3663    0.0000 C   0  0  0  0  0  0  0  0  0  0  0  0
    0.0000    0.3837    0.0000 C   0  0  0  0  0  0  0  0  0  0  0  0
    1.2990   -0.3663    0.0000 C   0  0  0  0  0  0  0  0  0  0  0  0
    2.5981    0.3837    0.0000 C   0  0  0  0  0  0  0  0  0  0  0  0
    3.8971   -0.3663    0.0000 C   0  0  0  0  0  0  0  0  0  0  0  0
    5.1962    0.3837    0.0000 C   0  0  0  0  0  0  0  0  0  0  0  0
    6.4952   -0.3663    0.0000 C   0  0  0  0  0  0  0  0  0  0  0  0
    7.7942    0.3837    0.0000 C   0  0  0  0  0  0  0  0  0  0  0  0
    9.0933   -0.3663    0.0000 C   0  0  0  0  0  0  0  0  0  0  0  0
   10.3923    0.3837    0.0000 C   0  0  0  0  0  0  0  0  0  0  0  0
   11.6913   -0.3663    0.0000 C   0  0  0  0  0  0  0  0  0  0  0  0
   12.9904    0.3837    0.0000 C   0  0  0  0  0  0  0  0  0  0  0  0
   14.2894   -0.3663    0.0000 C   0  0  0  0  0  0  0  0  0  0  0  0
   15.5885    0.3837    0.0000 C   0  0  0  0  0  0  0  0  0  0  0  0
   16.8875   -0.3663    0.0000 C   0  0  0  0  0  0  0  0  0  0  0  0
   18.1865    0.3837    0.0000 C   0  0  0  0  0  0  0  0  0  0  0  0
   19.4856   -0.3663    0.0000 C   0  0  0  0  0  0  0  0  0  0  0  0
   20.7846    0.3837    0.0000 C   0  0  0  0  0  0  0  0  0  0  0  0
   22.0836   -0.3663    0.0000 C   0  0  0  0  0  0  0  0  0  0  0  0
   23.3827    0.3837    0.0000 C   0  0  0  0  0  0  0  0  0  0  0  0
   24.6817   -0.3663    0.0000 C   0  0  0  0  0  0  0  0  0  0  0  0
   25.9808    0.3837    0.0000 C   0  0  0  0  0  0  0  0  0  0  0  0
   27.2798   -0.3663    0.0000 C   0  0  0  0  0  0  0  0  0  0  0  0
  1  2  1  0
  2  3  1  0
  3  4  1  0
  4  5  1  0
  5  6  1  0
  6  7  1  0
  7  8  1  0
  8  9  1  0
  9 10  1  0
 10 11  1  0
 11 12  1  0
 12 13  1  0
 13 14  1  0
 14 15  1  0
 15 16  1  0
 16 17  1  0
 17 18  1  0
 18 19  1  0
 19 20  1  0
 20 21  1  0
 21 22  1  0
 22 23  1  0
 23 24  1  0
 24 25  1  0
 25 26  1  0
 26 27  1  0
 27 28  1  0
 28 29  1  0
 29 30  1  0
 30 31  1  0
 31 32  1  0
 32 33  1  0
 33 34  1  0
 34 35  1  0
 35 36  1  0
 36 37  1  0
 37 38  1  0
 38 39  1  0
 39 40  1  0
 40 41  1  0
 41 42  1  0
 42 43  1  0
M  END
>  <identifier>  (558) 
CNP0126396.0

>  <canonical_smiles>  (558) 
CCCCCCCCCCCCCCCCCCCCCCCCCCCCCCCCCCCCCCCCCCC

>  <standard_inchi>  (558) 
InChI=1S/C43H88/c1-3-5-7-9-11-13-15-17-19-21-23-25-27-29-31-33-35-37-39-41-43-42-40-38-36-34-32-30-28-26-24-22-20-18-16-14-12-10-8-6-4-2/h3-43H2,1-2H3

>  <standard_inchi_key>  (558) 
PKBVGJFKBPLWOD-UHFFFAOYSA-N

>  <name>  (558) 
Tritetracontane

>  <iupac_name>  (558) 
tritetracontane

>  <annotation_level>  (558) 
5

>  <total_atom_count>  (558) 
131

>  <heavy_atom_count>  (558) 
43

>  <molecular_weight>  (558) 
605.18

>  <exact_molecular_weight>  (558) 
604.6886

>  <molecular_formula>  (558) 
C43H88

>  <alogp>  (558) 
17.02

>  <topological_polar_surface_area>  (558) 
0.00

>  <rotatable_bond_count>  (558) 
40

>  <hydrogen_bond_acceptors>  (558) 
0

>  <hydrogen_bond_donors>  (558) 
0

>  <hydrogen_bond_acceptors_lipinski>  (558) 
0

>  <hydrogen_bond_donors_lipinski>  (558) 
0

>  <lipinski_rule_of_five_violations>  (558) 
2

>  <aromatic_rings_count>  (558) 
0

>  <qed_drug_likeliness>  (558) 
0.06

>  <formal_charge>  (558) 
0

>  <fractioncsp3>  (558) 
1.00

>  <number_of_minimal_rings>  (558) 
0

>  <van_der_walls_volume>  (558) 
727.30

>  <contains_sugar>  (558) 
False

>  <contains_ring_sugars>  (558) 
False

>  <contains_linear_sugars>  (558) 
False

>  <murcko_framework>  (558) 
nan

>  <np_likeness>  (558) 
0.06

>  <chemical_class>  (558) 
Saturated hydrocarbons

>  <chemical_sub_class>  (558) 
Alkanes

>  <chemical_super_class>  (558) 
Hydrocarbons

>  <direct_parent_classification>  (558) 
Alkanes

>  <np_classifier_pathway>  (558) 
Fatty acids

>  <np_classifier_superclass>  (558) 
Fatty acyls

>  <np_classifier_class>  (558) 
Hydrocarbons

>  <np_classifier_is_glycoside>  (558) 
False

>  <organisms>  (558) 
Dichrocephala integrifolia|Matayba oppositifolia

>  <collections>  (558) 
Australian natural products|BIOFACQUIM|CMAUP (cCollective molecular activities of useful plants)|TCMID (Traditional Chinese Medicine Integrated Database)|UNPD (Universal Natural Products Database)|ZINC NP

>  <dois>  (558) 
10.1016/j.jep.2022.115738

>  <synonyms>  (558) 
7098-21-7|DTXSID90334942|PKBVGJFKBPLWOD-UHFFFAOYSA-N|62479D2D-191F-4EBB-85E5-9BFEAB9BB03C|Q18456290|Tritetracontane

>  <cas>  (558) 
7098-21-7

$$$$

     RDKit          2D

 34 33  0  0  0  0  0  0  0  0999 V2000
  -21.4347   -0.3428    0.0000 C   0  0  0  0  0  0  0  0  0  0  0  0
  -20.1345    0.4052    0.0000 C   0  0  0  0  0  0  0  0  0  0  0  0
  -18.8366   -0.3467    0.0000 C   0  0  0  0  0  0  0  0  0  0  0  0
  -17.5364    0.4013    0.0000 C   0  0  0  0  0  0  0  0  0  0  0  0
  -16.2385   -0.3506    0.0000 C   0  0  0  0  0  0  0  0  0  0  0  0
  -14.9384    0.3974    0.0000 C   0  0  0  0  0  0  0  0  0  0  0  0
  -13.6404   -0.3545    0.0000 C   0  0  0  0  0  0  0  0  0  0  0  0
  -12.3403    0.3935    0.0000 C   0  0  0  0  0  0  0  0  0  0  0  0
  -11.0424   -0.3584    0.0000 C   0  0  0  0  0  0  0  0  0  0  0  0
   -9.7422    0.3896    0.0000 C   0  0  0  0  0  0  0  0  0  0  0  0
   -8.4443   -0.3623    0.0000 C   0  0  0  0  0  0  0  0  0  0  0  0
   -7.1441    0.3857    0.0000 C   0  0  0  0  0  0  0  0  0  0  0  0
   -5.8462   -0.3662    0.0000 C   0  0  0  0  0  0  0  0  0  0  0  0
   -4.5461    0.3818    0.0000 C   0  0  0  0  0  0  0  0  0  0  0  0
   -3.2482   -0.3701    0.0000 C   0  0  0  0  0  0  0  0  0  0  0  0
   -1.9480    0.3779    0.0000 C   0  0  0  0  0  0  0  0  0  0  0  0
   -0.6501   -0.3740    0.0000 C   0  0  0  0  0  0  0  0  0  0  0  0
    0.6501    0.3740    0.0000 C   0  0  0  0  0  0  0  0  0  0  0  0
    1.9480   -0.3779    0.0000 C   0  0  0  0  0  0  0  0  0  0  0  0
    3.2482    0.3701    0.0000 C   0  0  0  0  0  0  0  0  0  0  0  0
    4.5461   -0.3818    0.0000 C   0  0  0  0  0  0  0  0  0  0  0  0
    5.8462    0.3662    0.0000 C   0  0  0  0  0  0  0  0  0  0  0  0
    7.1441   -0.3857    0.0000 C   0  0  0  0  0  0  0  0  0  0  0  0
    8.4443    0.3623    0.0000 C   0  0  0  0  0  0  0  0  0  0  0  0
    9.7422   -0.3896    0.0000 C   0  0  0  0  0  0  0  0  0  0  0  0
   11.0424    0.3584    0.0000 C   0  0  0  0  0  0  0  0  0  0  0  0
   12.3403   -0.3935    0.0000 C   0  0  0  0  0  0  0  0  0  0  0  0
   13.6404    0.3545    0.0000 C   0  0  0  0  0  0  0  0  0  0  0  0
   14.9384   -0.3974    0.0000 C   0  0  0  0  0  0  0  0  0  0  0  0
   16.2385    0.3506    0.0000 C   0  0  0  0  0  0  0  0  0  0  0  0
   17.5364   -0.4013    0.0000 C   0  0  0  0  0  0  0  0  0  0  0  0
   18.8366    0.3467    0.0000 C   0  0  0  0  0  0  0  0  0  0  0  0
   20.1345   -0.4052    0.0000 C   0  0  0  0  0  0  0  0  0  0  0  0
   21.4347    0.3428    0.0000 C   0  0  0  0  0  0  0  0  0  0  0  0
  1  2  1  0
  2  3  1  0
  3  4  1  0
  4  5  1  0
  5  6  1  0
  6  7  1  0
  7  8  1  0
  8  9  1  0
  9 10  1  0
 10 11  1  0
 11 12  1  0
 12 13  1  0
 13 14  1  0
 14 15  1  0
 15 16  1  0
 16 17  1  0
 17 18  1  0
 18 19  1  0
 19 20  1  0
 20 21  1  0
 21 22  1  0
 22 23  1  0
 23 24  1  0
 24 25  1  0
 25 26  1  0
 26 27  1  0
 27 28  1  0
 28 29  1  0
 29 30  1  0
 30 31  1  0
 31 32  1  0
 32 33  1  0
 33 34  1  0
M  END
>  <identifier>  (559) 
CNP0262500.0

>  <canonical_smiles>  (559) 
CCCCCCCCCCCCCCCCCCCCCCCCCCCCCCCCCC

>  <standard_inchi>  (559) 
InChI=1S/C34H70/c1-3-5-7-9-11-13-15-17-19-21-23-25-27-29-31-33-34-32-30-28-26-24-22-20-18-16-14-12-10-8-6-4-2/h3-34H2,1-2H3

>  <standard_inchi_key>  (559) 
GWVDBZWVFGFBCN-UHFFFAOYSA-N

>  <name>  (559) 
Tetratriacontane

>  <iupac_name>  (559) 
tetratriacontane

>  <annotation_level>  (559) 
5

>  <total_atom_count>  (559) 
104

>  <heavy_atom_count>  (559) 
34

>  <molecular_weight>  (559) 
478.93

>  <exact_molecular_weight>  (559) 
478.54775

>  <molecular_formula>  (559) 
C34H70

>  <alogp>  (559) 
13.51

>  <topological_polar_surface_area>  (559) 
0.00

>  <rotatable_bond_count>  (559) 
31

>  <hydrogen_bond_acceptors>  (559) 
0

>  <hydrogen_bond_donors>  (559) 
0

>  <hydrogen_bond_acceptors_lipinski>  (559) 
0

>  <hydrogen_bond_donors_lipinski>  (559) 
0

>  <lipinski_rule_of_five_violations>  (559) 
1

>  <aromatic_rings_count>  (559) 
0

>  <qed_drug_likeliness>  (559) 
0.09

>  <formal_charge>  (559) 
0

>  <fractioncsp3>  (559) 
1.00

>  <number_of_minimal_rings>  (559) 
0

>  <van_der_walls_volume>  (559) 
578.55

>  <contains_sugar>  (559) 
False

>  <contains_ring_sugars>  (559) 
False

>  <contains_linear_sugars>  (559) 
False

>  <murcko_framework>  (559) 
nan

>  <np_likeness>  (559) 
0.07

>  <chemical_class>  (559) 
Saturated hydrocarbons

>  <chemical_sub_class>  (559) 
Alkanes

>  <chemical_super_class>  (559) 
Hydrocarbons

>  <direct_parent_classification>  (559) 
Alkanes

>  <np_classifier_pathway>  (559) 
Fatty acids

>  <np_classifier_superclass>  (559) 
Fatty acyls

>  <np_classifier_class>  (559) 
Hydrocarbons

>  <np_classifier_is_glycoside>  (559) 
False

>  <organisms>  (559) 
Ailanthus altissima|Azadirachta indica|Combretum indicum|Craibiodendron yunnanese|Cynomorium songaricum|Ecklonia kurome|Fructus syzygii|Lonicera confusa|Lonicera fulvotomentosa|Lonicera hypoglauca|Lonicera macranthoides|Matayba oppositifolia|Nicotiana glauca|Rhodiola crenulata|Saccharina japonica|Senna italica|Terminalia chebula

>  <collections>  (559) 
ANPDB|Australian natural products|BIOFACQUIM|CMAUP (cCollective molecular activities of useful plants)|ChEBI NPs|EMNPD|NANPDB (Natural Products from Northern African Sources)|NPASS|Super Natural II|TCMID (Traditional Chinese Medicine Integrated Database)|UNPD (Universal Natural Products Database)

>  <dois>  (559) 
10.1016/j.jep.2022.115738|10.1104/pp.108.129403|10.1271/bbb1961.45.645|10.14233/ajchem.2014.15623|10.6026/97320630011359

>  <synonyms>  (559) 
N-TETRATRIACONTANE|14167-59-0|94UA0738YX|NSC-2998|n-Tetratriacontane 100 microg\/mL in Hexane|Tetratriacontane| analytical standard|Tetratriacontane; NSC 2998; n-Tetratriacontane|NSC 2998|UNII-94UA0738YX|EINECS 238-013-0|Tetratriacontane| 98%|AI3-36492|DTXSID7058622|CHEBI:87443|BBL103832|LMFA11000587|MFCD00009412|STL557642|AKOS025212369|AS-57006|DB-042580|CS-0315160|NS00010743|T0687|T2938|T71761|Q151145|J-007535|FF7BB6B8-4684-449E-9BAA-3CEDC172E786|Tetratriacontane

>  <cas>  (559) 
14167-59-0

$$$$

     RDKit          2D

 29 33  0  0  0  0  0  0  0  0999 V2000
   -6.2704   -1.5992    0.0000 C   0  0  0  0  0  0  0  0  0  0  0  0
   -5.4079   -0.3720    0.0000 C   0  0  0  0  0  0  0  0  0  0  0  0
   -6.0395    0.9886    0.0000 C   0  0  0  0  0  0  0  0  0  0  0  0
   -5.1770    2.2158    0.0000 C   0  0  0  0  0  0  0  0  0  0  0  0
   -3.6829    2.0825    0.0000 C   0  0  0  0  0  0  0  0  0  0  0  0
   -3.0514    0.7220    0.0000 C   0  0  0  0  0  0  0  0  0  0  0  0
   -2.1889    1.9492    0.0000 C   0  0  0  0  0  0  0  0  0  0  0  0
   -1.5573    0.5887    0.0000 C   0  0  0  0  0  0  0  0  0  0  0  0
   -0.6948    1.8159    0.0000 C   0  0  0  0  0  0  0  0  0  0  0  0
    0.7992    1.6826    0.0000 C   0  0  0  0  0  0  0  0  0  0  0  0
    1.4308    0.3221    0.0000 C   0  0  0  0  0  0  0  0  0  0  0  0
    2.9249    0.1888    0.0000 C   0  0  0  0  0  0  0  0  0  0  0  0
    3.7874    1.4160    0.0000 C   0  0  0  0  0  0  0  0  0  0  0  0
    3.1558    2.7766    0.0000 C   0  0  0  0  0  0  0  0  0  0  0  0
    5.2814    1.2827    0.0000 C   0  0  0  0  0  0  0  0  0  0  0  0
    6.1439    2.5099    0.0000 C   0  0  0  0  0  0  0  0  0  0  0  0
    5.9130   -0.0779    0.0000 C   0  0  0  0  0  0  0  0  0  0  0  0
    5.0506   -1.3051    0.0000 C   0  0  0  0  0  0  0  0  0  0  0  0
    3.5565   -1.1718    0.0000 C   0  0  0  0  0  0  0  0  0  0  0  0
    4.1881   -2.5323    0.0000 C   0  0  0  0  0  0  0  0  0  0  0  0
    2.6940   -2.3990    0.0000 C   0  0  0  0  0  0  0  0  0  0  0  0
    1.1999   -2.2657    0.0000 C   0  0  0  0  0  0  0  0  0  0  0  0
    0.5684   -0.9052    0.0000 C   0  0  0  0  0  0  0  0  0  0  0  0
   -0.2941   -2.1324    0.0000 C   0  0  0  0  0  0  0  0  0  0  0  0
   -0.9257   -0.7719    0.0000 C   0  0  0  0  0  0  0  0  0  0  0  0
   -2.4198   -0.6386    0.0000 C   0  0  0  0  0  0  0  0  0  0  0  0
   -1.7882   -1.9991    0.0000 C   0  0  0  0  0  0  0  0  0  0  0  0
   -3.2822   -1.8658    0.0000 C   0  0  0  0  0  0  0  0  0  0  0  0
   -3.9138   -0.5053    0.0000 C   0  0  0  0  0  0  0  0  0  0  0  0
  1  2  1  0
  2  3  2  0
  3  4  1  0
  4  5  1  0
  5  6  1  0
  6  7  1  0
  6  8  1  0
  8  9  2  0
  9 10  1  0
 10 11  2  0
 11 12  1  0
 12 13  1  0
 13 14  1  0
 13 15  1  0
 15 16  1  0
 15 17  1  0
 17 18  1  0
 18 19  1  0
 19 20  1  0
 19 21  1  0
 21 22  1  0
 22 23  1  0
 23 24  1  0
 23 25  1  0
 25 26  1  0
 25 27  1  0
 27 28  1  0
 28 29  1  0
 29  2  1  0
 29  6  1  0
 25  8  1  0
 23 11  1  0
 19 12  1  0
M  END
>  <identifier>  (560) 
CNP0533590.0

>  <canonical_smiles>  (560) 
CC1=CCCC2(C)C3=CC=C4C5C(C)C(C)CCC5(C)CCC4(C)C3(C)CCC12

>  <standard_inchi>  (560) 
InChI=1S/C29H44/c1-19-12-15-26(4)17-18-28(6)23(25(26)21(19)3)10-11-24-27(5)14-8-9-20(2)22(27)13-16-29(24,28)7/h9-11,19,21-22,25H,8,12-18H2,1-7H3

>  <standard_inchi_key>  (560) 
QSFCELCDWHMMTE-UHFFFAOYSA-N

>  <name>  (560) 
QSFCELCDWHMMTE-UHFFFAOYSA-N

>  <iupac_name>  (560) 
1,2,4~{a},6~{a},6~{b},9,12~{a}-heptamethyl-1,2,3,4,5,6,7,8,8~{a},11,12,14~{b}-dodecahydropicene

>  <annotation_level>  (560) 
5

>  <total_atom_count>  (560) 
73

>  <heavy_atom_count>  (560) 
29

>  <molecular_weight>  (560) 
392.67

>  <exact_molecular_weight>  (560) 
392.3443

>  <molecular_formula>  (560) 
C29H44

>  <alogp>  (560) 
8.50

>  <topological_polar_surface_area>  (560) 
0.00

>  <rotatable_bond_count>  (560) 
0

>  <hydrogen_bond_acceptors>  (560) 
0

>  <hydrogen_bond_donors>  (560) 
0

>  <hydrogen_bond_acceptors_lipinski>  (560) 
0

>  <hydrogen_bond_donors_lipinski>  (560) 
0

>  <lipinski_rule_of_five_violations>  (560) 
1

>  <aromatic_rings_count>  (560) 
0

>  <qed_drug_likeliness>  (560) 
0.36

>  <formal_charge>  (560) 
0

>  <fractioncsp3>  (560) 
0.79

>  <number_of_minimal_rings>  (560) 
5

>  <van_der_walls_volume>  (560) 
409.71

>  <contains_sugar>  (560) 
False

>  <contains_ring_sugars>  (560) 
False

>  <contains_linear_sugars>  (560) 
False

>  <murcko_framework>  (560) 
C=1C=C2C(CCC3CCCCC23)C4C1C5CCC=CC5CC4

>  <np_likeness>  (560) 
2.96

>  <chemical_class>  (560) 
Polycyclic hydrocarbons

>  <chemical_sub_class>  (560) 
Polycyclic hydrocarbons

>  <chemical_super_class>  (560) 
Hydrocarbons

>  <direct_parent_classification>  (560) 
Polycyclic hydrocarbons

>  <np_classifier_pathway>  (560) 
Terpenoids

>  <np_classifier_superclass>  (560) 
Triterpenoids

>  <np_classifier_class>  (560) 
Ursane and Taraxastane triterpenoids

>  <np_classifier_is_glycoside>  (560) 
False

>  <organisms>  (560) 
Matayba oppositifolia

>  <collections>  (560) 
BIOFACQUIM

>  <dois>  (560) 
10.1016/j.jep.2022.115738

>  <synonyms>  (560) 
24-Norursa-3|9(11)|12-triene|(1S|2R|4aR|6aR|6bS|12aS|14bR)-1|2|4a|6a|6b|9|12a-Heptamethyl-1|2|3|4|4a|5|6|6a|6b|7|8|8a|11|12|12a|14b-hexadecahydropicene

>  <cas>  (560) 
nan

$$$$

     RDKit          2D

 30 35  0  0  0  0  0  0  0  0999 V2000
   -8.6996   -0.2886    0.0000 C   0  0  0  0  0  0  0  0  0  0  0  0
   -7.2129   -0.0892    0.0000 C   0  0  0  0  0  0  0  0  0  0  0  0
   -6.6422    1.2980    0.0000 C   0  0  0  0  0  0  0  0  0  0  0  0
   -5.1556    1.4974    0.0000 C   0  0  0  0  0  0  0  0  0  0  0  0
   -4.2395    0.3096    0.0000 C   0  0  0  0  0  0  0  0  0  0  0  0
   -4.8102   -1.0776    0.0000 O   0  0  0  0  0  0  0  0  0  0  0  0
   -6.2968   -1.2770    0.0000 C   0  0  0  0  0  0  0  0  0  0  0  0
   -3.5270    1.6296    0.0000 O   0  0  0  0  0  0  0  0  0  0  0  0
   -2.0515    1.3599    0.0000 C   0  0  0  0  0  0  0  0  0  0  0  0
   -0.6992    2.0089    0.0000 C   0  0  0  0  0  0  0  0  0  0  0  0
    0.3360    0.9234    0.0000 C   0  0  0  0  0  0  0  0  0  0  0  0
    1.8354    0.9663    0.0000 C   0  0  0  0  0  0  0  0  0  0  0  0
    2.5479    2.2863    0.0000 C   0  0  0  0  0  0  0  0  0  0  0  0
    4.0473    2.3292    0.0000 C   0  0  0  0  0  0  0  0  0  0  0  0
    4.8342    1.0522    0.0000 C   0  0  0  0  0  0  0  0  0  0  0  0
    6.3336    1.0951    0.0000 C   0  0  0  0  0  0  0  0  0  0  0  0
    7.1204   -0.1819    0.0000 C   0  0  0  0  0  0  0  0  0  0  0  0
    8.6198   -0.1390    0.0000 O   0  0  0  0  0  0  0  0  0  0  0  0
    6.4079   -1.5019    0.0000 C   0  0  0  0  0  0  0  0  0  0  0  0
    4.9085   -1.5448    0.0000 C   0  0  0  0  0  0  0  0  0  0  0  0
    4.1217   -0.2678    0.0000 C   0  0  0  0  0  0  0  0  0  0  0  0
    3.4092   -1.5877    0.0000 C   0  0  0  0  0  0  0  0  0  0  0  0
    2.6223   -0.3107    0.0000 C   0  0  0  0  0  0  0  0  0  0  0  0
    1.9098   -1.6307    0.0000 C   0  0  0  0  0  0  0  0  0  0  0  0
    0.4104   -1.6736    0.0000 C   0  0  0  0  0  0  0  0  0  0  0  0
   -0.3765   -0.3966    0.0000 C   0  0  0  0  0  0  0  0  0  0  0  0
   -1.2231   -1.6348    0.0000 C   0  0  0  0  0  0  0  0  0  0  0  0
   -1.8520   -0.1268    0.0000 C   0  0  0  0  0  0  0  0  0  0  0  0
   -3.2043   -0.7759    0.0000 C   0  0  0  0  0  0  0  0  0  0  0  0
   -3.4741   -2.2514    0.0000 C   0  0  0  0  0  0  0  0  0  0  0  0
  1  2  1  0
  2  3  1  0
  3  4  1  0
  4  5  1  0
  5  6  1  0
  6  7  1  0
  5  8  1  0
  8  9  1  0
  9 10  1  0
 10 11  1  0
 11 12  1  0
 12 13  2  0
 13 14  1  0
 14 15  2  0
 15 16  1  0
 16 17  1  0
 17 18  1  0
 17 19  1  0
 19 20  1  0
 20 21  1  0
 21 22  1  0
 21 23  1  0
 23 24  1  0
 24 25  1  0
 25 26  1  0
 26 27  1  0
 26 28  1  0
 28 29  1  0
 29 30  1  0
  7  2  1  0
 28  9  1  0
 29  5  1  0
 26 11  1  0
 23 12  1  0
 21 15  1  0
M  END
>  <identifier>  (561) 
CNP0300978.0

>  <canonical_smiles>  (561) 
CC1CCC2(OC1)OC1CC3C4=CC=C5CC(O)CCC5(C)C4CCC3(C)C1C2C

>  <standard_inchi>  (561) 
InChI=1S/C27H40O3/c1-16-7-12-27(29-15-16)17(2)24-23(30-27)14-22-20-6-5-18-13-19(28)8-10-25(18,3)21(20)9-11-26(22,24)4/h5-6,16-17,19,21-24,28H,7-15H2,1-4H3

>  <standard_inchi_key>  (561) 
YRYHWWSPSYOEEL-UHFFFAOYSA-N

>  <name>  (561) 
85706-84-9

>  <iupac_name>  (561) 
5',7,9,13-tetramethylspiro[5-oxapentacyclo[10.8.0.0^{2,9}.0^{4,8}.0^{13,18}]icosa-1(20),18-diene-6,2'-tetrahydropyran]-16-ol

>  <annotation_level>  (561) 
5

>  <total_atom_count>  (561) 
70

>  <heavy_atom_count>  (561) 
30

>  <molecular_weight>  (561) 
412.61

>  <exact_molecular_weight>  (561) 
412.29775

>  <molecular_formula>  (561) 
C27H40O3

>  <alogp>  (561) 
5.63

>  <topological_polar_surface_area>  (561) 
38.69

>  <rotatable_bond_count>  (561) 
0

>  <hydrogen_bond_acceptors>  (561) 
3

>  <hydrogen_bond_donors>  (561) 
1

>  <hydrogen_bond_acceptors_lipinski>  (561) 
3

>  <hydrogen_bond_donors_lipinski>  (561) 
1

>  <lipinski_rule_of_five_violations>  (561) 
1

>  <aromatic_rings_count>  (561) 
0

>  <qed_drug_likeliness>  (561) 
0.56

>  <formal_charge>  (561) 
0

>  <fractioncsp3>  (561) 
0.85

>  <number_of_minimal_rings>  (561) 
6

>  <van_der_walls_volume>  (561) 
402.08

>  <contains_sugar>  (561) 
False

>  <contains_ring_sugars>  (561) 
False

>  <contains_linear_sugars>  (561) 
False

>  <murcko_framework>  (561) 
O1CCCCC12OC3CC4C5=CC=C6CCCCC6C5CCC4C3C2

>  <np_likeness>  (561) 
3.45

>  <chemical_class>  (561) 
Steroids and steroid derivatives

>  <chemical_sub_class>  (561) 
Hydroxysteroids

>  <chemical_super_class>  (561) 
Lipids and lipid-like molecules

>  <direct_parent_classification>  (561) 
3-hydroxy delta-7-steroids

>  <np_classifier_pathway>  (561) 
Terpenoids

>  <np_classifier_superclass>  (561) 
Steroids

>  <np_classifier_class>  (561) 
Spirostane steroids

>  <np_classifier_is_glycoside>  (561) 
False

>  <organisms>  (561) 
Eleutherococcus senticosus|Matayba oppositifolia

>  <collections>  (561) 
BIOFACQUIM|CMAUP (cCollective molecular activities of useful plants)|NPASS

>  <dois>  (561) 
10.1016/j.jep.2022.115738

>  <synonyms>  (561) 
Spirosta-5|7-dien-3-ol|7-Dehydrodiosgenin|NSC231807|DTXSID60310793|YRYHWWSPSYOEEL-UHFFFAOYSA-N

>  <cas>  (561) 
nan

$$$$

     RDKit          2D

 35 34  0  0  0  0  0  0  0  0999 V2000
  -22.0836   -0.3643    0.0000 C   0  0  0  0  0  0  0  0  0  0  0  0
  -20.7846    0.3857    0.0000 C   0  0  0  0  0  0  0  0  0  0  0  0
  -19.4856   -0.3643    0.0000 C   0  0  0  0  0  0  0  0  0  0  0  0
  -18.1865    0.3857    0.0000 C   0  0  0  0  0  0  0  0  0  0  0  0
  -16.8875   -0.3643    0.0000 C   0  0  0  0  0  0  0  0  0  0  0  0
  -15.5885    0.3857    0.0000 C   0  0  0  0  0  0  0  0  0  0  0  0
  -14.2894   -0.3643    0.0000 C   0  0  0  0  0  0  0  0  0  0  0  0
  -12.9904    0.3857    0.0000 C   0  0  0  0  0  0  0  0  0  0  0  0
  -11.6913   -0.3643    0.0000 C   0  0  0  0  0  0  0  0  0  0  0  0
  -10.3923    0.3857    0.0000 C   0  0  0  0  0  0  0  0  0  0  0  0
   -9.0933   -0.3643    0.0000 C   0  0  0  0  0  0  0  0  0  0  0  0
   -7.7942    0.3857    0.0000 C   0  0  0  0  0  0  0  0  0  0  0  0
   -6.4952   -0.3643    0.0000 C   0  0  0  0  0  0  0  0  0  0  0  0
   -5.1962    0.3857    0.0000 C   0  0  0  0  0  0  0  0  0  0  0  0
   -3.8971   -0.3643    0.0000 C   0  0  0  0  0  0  0  0  0  0  0  0
   -2.5981    0.3857    0.0000 C   0  0  0  0  0  0  0  0  0  0  0  0
   -1.2990   -0.3643    0.0000 C   0  0  0  0  0  0  0  0  0  0  0  0
   -0.0000    0.3857    0.0000 C   0  0  0  0  0  0  0  0  0  0  0  0
    1.2990   -0.3643    0.0000 C   0  0  0  0  0  0  0  0  0  0  0  0
    2.5981    0.3857    0.0000 C   0  0  0  0  0  0  0  0  0  0  0  0
    3.8971   -0.3643    0.0000 C   0  0  0  0  0  0  0  0  0  0  0  0
    5.1962    0.3857    0.0000 C   0  0  0  0  0  0  0  0  0  0  0  0
    6.4952   -0.3643    0.0000 C   0  0  0  0  0  0  0  0  0  0  0  0
    7.7942    0.3857    0.0000 C   0  0  0  0  0  0  0  0  0  0  0  0
    9.0933   -0.3643    0.0000 C   0  0  0  0  0  0  0  0  0  0  0  0
   10.3923    0.3857    0.0000 C   0  0  0  0  0  0  0  0  0  0  0  0
   11.6913   -0.3643    0.0000 C   0  0  0  0  0  0  0  0  0  0  0  0
   12.9904    0.3857    0.0000 C   0  0  0  0  0  0  0  0  0  0  0  0
   14.2894   -0.3643    0.0000 C   0  0  0  0  0  0  0  0  0  0  0  0
   15.5885    0.3857    0.0000 C   0  0  0  0  0  0  0  0  0  0  0  0
   16.8875   -0.3643    0.0000 C   0  0  0  0  0  0  0  0  0  0  0  0
   18.1865    0.3857    0.0000 C   0  0  0  0  0  0  0  0  0  0  0  0
   19.4856   -0.3643    0.0000 C   0  0  0  0  0  0  0  0  0  0  0  0
   20.7846    0.3857    0.0000 C   0  0  0  0  0  0  0  0  0  0  0  0
   22.0836   -0.3643    0.0000 C   0  0  0  0  0  0  0  0  0  0  0  0
  1  2  1  0
  2  3  1  0
  3  4  1  0
  4  5  1  0
  5  6  1  0
  6  7  1  0
  7  8  1  0
  8  9  1  0
  9 10  1  0
 10 11  1  0
 11 12  1  0
 12 13  1  0
 13 14  1  0
 14 15  1  0
 15 16  1  0
 16 17  1  0
 17 18  2  3
 18 19  1  0
 19 20  1  0
 20 21  1  0
 21 22  1  0
 22 23  1  0
 23 24  1  0
 24 25  1  0
 25 26  1  0
 26 27  1  0
 27 28  1  0
 28 29  1  0
 29 30  1  0
 30 31  1  0
 31 32  1  0
 32 33  1  0
 33 34  1  0
 34 35  1  0
M  END
>  <identifier>  (562) 
CNP0570003.0

>  <canonical_smiles>  (562) 
CCCCCCCCCCCCCCCCC=CCCCCCCCCCCCCCCCCC

>  <standard_inchi>  (562) 
InChI=1S/C35H70/c1-3-5-7-9-11-13-15-17-19-21-23-25-27-29-31-33-35-34-32-30-28-26-24-22-20-18-16-14-12-10-8-6-4-2/h33,35H,3-32,34H2,1-2H3

>  <standard_inchi_key>  (562) 
BLCUZCCTSBVFSV-UHFFFAOYSA-N

>  <name>  (562) 
pentatriacont-17-ene

>  <iupac_name>  (562) 
pentatriacont-17-ene

>  <annotation_level>  (562) 
5

>  <total_atom_count>  (562) 
105

>  <heavy_atom_count>  (562) 
35

>  <molecular_weight>  (562) 
490.95

>  <exact_molecular_weight>  (562) 
490.54775

>  <molecular_formula>  (562) 
C35H70

>  <alogp>  (562) 
13.68

>  <topological_polar_surface_area>  (562) 
0.00

>  <rotatable_bond_count>  (562) 
31

>  <hydrogen_bond_acceptors>  (562) 
0

>  <hydrogen_bond_donors>  (562) 
0

>  <hydrogen_bond_acceptors_lipinski>  (562) 
0

>  <hydrogen_bond_donors_lipinski>  (562) 
0

>  <lipinski_rule_of_five_violations>  (562) 
1

>  <aromatic_rings_count>  (562) 
0

>  <qed_drug_likeliness>  (562) 
0.07

>  <formal_charge>  (562) 
0

>  <fractioncsp3>  (562) 
0.94

>  <number_of_minimal_rings>  (562) 
0

>  <van_der_walls_volume>  (562) 
585.86

>  <contains_sugar>  (562) 
False

>  <contains_ring_sugars>  (562) 
False

>  <contains_linear_sugars>  (562) 
False

>  <murcko_framework>  (562) 
nan

>  <np_likeness>  (562) 
0.37

>  <chemical_class>  (562) 
Unsaturated hydrocarbons

>  <chemical_sub_class>  (562) 
Olefins

>  <chemical_super_class>  (562) 
Hydrocarbons

>  <direct_parent_classification>  (562) 
Alkenes

>  <np_classifier_pathway>  (562) 
Fatty acids

>  <np_classifier_superclass>  (562) 
Fatty acyls

>  <np_classifier_class>  (562) 
Hydrocarbons

>  <np_classifier_is_glycoside>  (562) 
False

>  <organisms>  (562) 
Calotropis gigantea|Matayba oppositifolia

>  <collections>  (562) 
Australian natural products|BIOFACQUIM|CMAUP (cCollective molecular activities of useful plants)|EMNPD|Supernatural3

>  <dois>  (562) 
10.1016/j.jep.2022.115738

>  <synonyms>  (562) 
DTXSID10863966|17-Pentatriacontene|Pentatriacont-17-ene

>  <cas>  (562) 
nan

$$$$

     RDKit          2D

 79 84  0  0  0  0  0  0  0  0999 V2000
   -7.5236   -3.9695    0.0000 C   0  0  0  0  0  0  0  0  0  0  0  0
   -7.4549   -2.4710    0.0000 C   0  0  0  0  0  0  0  0  0  0  0  0
   -6.1229   -1.7814    0.0000 C   0  0  0  0  0  0  0  0  0  0  0  0
   -6.0541   -0.2829    0.0000 C   0  0  0  0  0  0  0  0  0  0  0  0
   -7.3174    0.5258    0.0000 C   0  0  0  0  0  0  0  0  0  0  0  0
   -8.6494   -0.1639    0.0000 C   0  0  0  0  0  0  0  0  0  0  0  0
   -9.9127    0.6449    0.0000 C   0  0  0  0  0  0  0  0  0  0  0  0
  -11.2448   -0.0448    0.0000 C   0  0  0  0  0  0  0  0  0  0  0  0
  -12.5081    0.7640    0.0000 C   0  0  0  0  0  0  0  0  0  0  0  0
  -13.8401    0.0743    0.0000 C   0  0  0  0  0  0  0  0  0  0  0  0
  -15.1034    0.8830    0.0000 C   0  0  0  0  0  0  0  0  0  0  0  0
  -16.4355    0.1934    0.0000 C   0  0  0  0  0  0  0  0  0  0  0  0
  -17.6988    1.0021    0.0000 C   0  0  0  0  0  0  0  0  0  0  0  0
  -19.0308    0.3124    0.0000 C   0  0  0  0  0  0  0  0  0  0  0  0
  -19.0996   -1.1860    0.0000 O   0  0  0  0  0  0  0  0  0  0  0  0
  -20.2941    1.1212    0.0000 O   0  0  0  0  0  0  0  0  0  0  0  0
   -4.7221    0.4067    0.0000 O   0  0  0  0  0  0  0  0  0  0  0  0
   -4.6533    1.9052    0.0000 C   0  0  0  0  0  0  0  0  0  0  0  0
   -5.9166    2.7139    0.0000 O   0  0  0  0  0  0  0  0  0  0  0  0
   -5.8479    4.2123    0.0000 C   0  0  0  0  0  0  0  0  0  0  0  0
   -7.1112    5.0211    0.0000 C   0  0  0  0  0  0  0  0  0  0  0  0
   -4.5158    4.9020    0.0000 C   0  0  0  0  0  0  0  0  0  0  0  0
   -4.4471    6.4004    0.0000 O   0  0  0  0  0  0  0  0  0  0  0  0
   -3.2525    4.0932    0.0000 C   0  0  0  0  0  0  0  0  0  0  0  0
   -1.9205    4.7829    0.0000 O   0  0  0  0  0  0  0  0  0  0  0  0
   -3.3213    2.5948    0.0000 C   0  0  0  0  0  0  0  0  0  0  0  0
   -2.0580    1.7861    0.0000 O   0  0  0  0  0  0  0  0  0  0  0  0
   -2.1267    0.2876    0.0000 C   0  0  0  0  0  0  0  0  0  0  0  0
   -3.4588   -0.4020    0.0000 O   0  0  0  0  0  0  0  0  0  0  0  0
   -3.5275   -1.9004    0.0000 C   0  0  0  0  0  0  0  0  0  0  0  0
   -4.8596   -2.5901    0.0000 C   0  0  0  0  0  0  0  0  0  0  0  0
   -4.9283   -4.0885    0.0000 O   0  0  0  0  0  0  0  0  0  0  0  0
   -2.2642   -2.7092    0.0000 C   0  0  0  0  0  0  0  0  0  0  0  0
   -2.3330   -4.2076    0.0000 O   0  0  0  0  0  0  0  0  0  0  0  0
   -0.9322   -2.0195    0.0000 C   0  0  0  0  0  0  0  0  0  0  0  0
    0.3311   -2.8283    0.0000 O   0  0  0  0  0  0  0  0  0  0  0  0
   -0.8634   -0.5211    0.0000 C   0  0  0  0  0  0  0  0  0  0  0  0
    0.4686    0.1686    0.0000 O   0  0  0  0  0  0  0  0  0  0  0  0
    1.7319   -0.6402    0.0000 C   0  0  0  0  0  0  0  0  0  0  0  0
    1.6632   -2.1386    0.0000 O   0  0  0  0  0  0  0  0  0  0  0  0
    2.9265   -2.9474    0.0000 C   0  0  0  0  0  0  0  0  0  0  0  0
    2.8577   -4.4458    0.0000 C   0  0  0  0  0  0  0  0  0  0  0  0
    4.2585   -2.2577    0.0000 C   0  0  0  0  0  0  0  0  0  0  0  0
    5.5218   -3.0664    0.0000 O   0  0  0  0  0  0  0  0  0  0  0  0
    5.4531   -4.5649    0.0000 C   0  0  0  0  0  0  0  0  0  0  0  0
    4.1210   -5.2545    0.0000 O   0  0  0  0  0  0  0  0  0  0  0  0
    4.0523   -6.7530    0.0000 C   0  0  0  0  0  0  0  0  0  0  0  0
    2.7202   -7.4426    0.0000 C   0  0  0  0  0  0  0  0  0  0  0  0
    5.3156   -7.5617    0.0000 C   0  0  0  0  0  0  0  0  0  0  0  0
    5.2468   -9.0601    0.0000 O   0  0  0  0  0  0  0  0  0  0  0  0
    6.6476   -6.8720    0.0000 C   0  0  0  0  0  0  0  0  0  0  0  0
    7.9109   -7.6808    0.0000 O   0  0  0  0  0  0  0  0  0  0  0  0
    6.7164   -5.3736    0.0000 C   0  0  0  0  0  0  0  0  0  0  0  0
    8.0484   -4.6839    0.0000 O   0  0  0  0  0  0  0  0  0  0  0  0
    4.3273   -0.7593    0.0000 C   0  0  0  0  0  0  0  0  0  0  0  0
    5.6593   -0.0696    0.0000 O   0  0  0  0  0  0  0  0  0  0  0  0
    5.7281    1.4288    0.0000 C   0  0  0  0  0  0  0  0  0  0  0  0
    4.4648    2.2376    0.0000 O   0  0  0  0  0  0  0  0  0  0  0  0
    4.5335    3.7360    0.0000 C   0  0  0  0  0  0  0  0  0  0  0  0
    3.2702    4.5448    0.0000 C   0  0  0  0  0  0  0  0  0  0  0  0
    3.3390    6.0432    0.0000 O   0  0  0  0  0  0  0  0  0  0  0  0
    5.8656    4.4257    0.0000 C   0  0  0  0  0  0  0  0  0  0  0  0
    5.9343    5.9241    0.0000 O   0  0  0  0  0  0  0  0  0  0  0  0
    7.1289    3.6169    0.0000 C   0  0  0  0  0  0  0  0  0  0  0  0
    8.4609    4.3066    0.0000 O   0  0  0  0  0  0  0  0  0  0  0  0
    7.0601    2.1185    0.0000 C   0  0  0  0  0  0  0  0  0  0  0  0
    8.3234    1.3098    0.0000 O   0  0  0  0  0  0  0  0  0  0  0  0
    9.6555    1.9994    0.0000 C   0  0  0  0  0  0  0  0  0  0  0  0
    9.7242    3.4979    0.0000 O   0  0  0  0  0  0  0  0  0  0  0  0
   11.0563    4.1875    0.0000 C   0  0  0  0  0  0  0  0  0  0  0  0
   11.1250    5.6860    0.0000 C   0  0  0  0  0  0  0  0  0  0  0  0
   12.3196    3.3788    0.0000 C   0  0  0  0  0  0  0  0  0  0  0  0
   13.6516    4.0685    0.0000 O   0  0  0  0  0  0  0  0  0  0  0  0
   12.2508    1.8804    0.0000 C   0  0  0  0  0  0  0  0  0  0  0  0
   13.5141    1.0716    0.0000 O   0  0  0  0  0  0  0  0  0  0  0  0
   10.9188    1.1907    0.0000 C   0  0  0  0  0  0  0  0  0  0  0  0
   10.8500   -0.3077    0.0000 O   0  0  0  0  0  0  0  0  0  0  0  0
    3.0640    0.0495    0.0000 C   0  0  0  0  0  0  0  0  0  0  0  0
    3.1327    1.5479    0.0000 O   0  0  0  0  0  0  0  0  0  0  0  0
  1  2  1  0
  2  3  1  0
  4  3  1  6
  4  5  1  0
  5  6  1  0
  6  7  1  0
  7  8  1  0
  8  9  1  0
  9 10  1  0
 10 11  1  0
 11 12  1  0
 12 13  1  0
 13 14  1  0
 14 15  2  0
 14 16  1  0
  4 17  1  0
 18 17  1  6
 18 19  1  0
 19 20  1  0
 20 21  1  6
 20 22  1  0
 22 23  1  1
 22 24  1  0
 24 25  1  6
 24 26  1  0
 26 27  1  1
 28 27  1  1
 28 29  1  0
 29 30  1  0
 30 31  1  1
 31 32  1  0
 30 33  1  0
 33 34  1  6
 33 35  1  0
 35 36  1  1
 35 37  1  0
 37 38  1  6
 39 38  1  1
 39 40  1  0
 40 41  1  0
 41 42  1  6
 41 43  1  0
 43 44  1  1
 45 44  1  1
 45 46  1  0
 46 47  1  0
 47 48  1  1
 47 49  1  0
 49 50  1  1
 49 51  1  0
 51 52  1  1
 51 53  1  0
 53 54  1  6
 43 55  1  0
 55 56  1  6
 57 56  1  1
 57 58  1  0
 58 59  1  0
 59 60  1  1
 60 61  1  0
 59 62  1  0
 62 63  1  6
 62 64  1  0
 64 65  1  1
 64 66  1  0
 66 67  1  6
 68 67  1  1
 68 69  1  0
 69 70  1  0
 70 71  1  1
 70 72  1  0
 72 73  1  6
 72 74  1  0
 74 75  1  1
 74 76  1  0
 76 77  1  6
 55 78  1  0
 78 79  1  6
 26 18  1  0
 37 28  1  0
 78 39  1  0
 53 45  1  0
 66 57  1  0
 76 68  1  0
M  END
>  <identifier>  (563) 
CNP0299747.2

>  <canonical_smiles>  (563) 
CCC[C@H](CCCCCCCCCC(=O)O)O[C@@H]1O[C@H](C)[C@@H](O)[C@H](O)[C@H]1O[C@@H]1O[C@H](CO)[C@@H](O)[C@H](O)[C@H]1O[C@@H]1O[C@@H](C)[C@H](O[C@@H]2O[C@H](C)[C@H](O)[C@H](O)[C@H]2O)[C@@H](O[C@H]2O[C@@H](CO)[C@H](O)[C@@H](O)[C@@H]2O[C@H]2O[C@@H](C)[C@H](O)[C@@H](O)[C@@H]2O)[C@H]1O

>  <standard_inchi>  (563) 
InChI=1S/C50H88O29/c1-6-14-23(15-12-10-8-7-9-11-13-16-26(53)54)72-48-42(34(62)29(57)21(4)70-48)79-50-44(36(64)31(59)25(18-52)74-50)78-47-39(67)41(40(22(5)71-47)75-45-37(65)32(60)27(55)19(2)68-45)76-49-43(35(63)30(58)24(17-51)73-49)77-46-38(66)33(61)28(56)20(3)69-46/h19-25,27-52,55-67H,6-18H2,1-5H3,(H,53,54)/t19-,20+,21-,22+,23-,24+,25-,27+,28+,29-,30+,31-,32+,33-,34+,35-,36+,37-,38+,39-,40+,41+,42-,43+,44-,45+,46-,47+,48+,49-,50+/m1/s1

>  <standard_inchi_key>  (563) 
AQAYWDCXQVWWTA-YFJXJWQZSA-N

>  <name>  (563) 
nan

>  <iupac_name>  (563) 
(11~{R})-11-[(2~{R},3~{R},4~{S},5~{S},6~{R})-3-[(2~{S},3~{R},4~{S},5~{S},6~{R})-3-[(2~{S},3~{R},4~{S},5~{S},6~{S})-4-[(2~{R},3~{S},4~{R},5~{R},6~{S})-4,5-dihydroxy-6-(hydroxymethyl)-3-[(2~{R},3~{S},4~{R},5~{R},6~{S})-3,4,5-trihydroxy-6-methyl-tetrahydropyran-2-yl]oxy-tetrahydropyran-2-yl]oxy-3-hydroxy-6-methyl-5-[(2~{S},3~{R},4~{S},5~{R},6~{R})-3,4,5-trihydroxy-6-methyl-tetrahydropyran-2-yl]oxy-tetrahydropyran-2-yl]oxy-4,5-dihydroxy-6-(hydroxymethyl)tetrahydropyran-2-yl]oxy-4,5-dihydroxy-6-methyl-tetrahydropyran-2-yl]oxytetradecanoic acid

>  <annotation_level>  (563) 
5

>  <total_atom_count>  (563) 
167

>  <heavy_atom_count>  (563) 
79

>  <molecular_weight>  (563) 
1153.23

>  <exact_molecular_weight>  (563) 
1152.54113

>  <molecular_formula>  (563) 
C50H88O29

>  <alogp>  (563) 
-5.20

>  <topological_polar_surface_area>  (563) 
451.51

>  <rotatable_bond_count>  (563) 
26

>  <hydrogen_bond_acceptors>  (563) 
28

>  <hydrogen_bond_donors>  (563) 
16

>  <hydrogen_bond_acceptors_lipinski>  (563) 
28

>  <hydrogen_bond_donors_lipinski>  (563) 
16

>  <lipinski_rule_of_five_violations>  (563) 
3

>  <aromatic_rings_count>  (563) 
0

>  <qed_drug_likeliness>  (563) 
0.04

>  <formal_charge>  (563) 
0

>  <fractioncsp3>  (563) 
0.98

>  <number_of_minimal_rings>  (563) 
6

>  <van_der_walls_volume>  (563) 
1014.56

>  <contains_sugar>  (563) 
True

>  <contains_ring_sugars>  (563) 
True

>  <contains_linear_sugars>  (563) 
False

>  <murcko_framework>  (563) 
O1CCCC(OC2OCCCC2OC3OCC(OC4OCCCC4)C(OC5OCCCC5OC6OCCCC6)C3)C1

>  <np_likeness>  (563) 
0.98

>  <chemical_class>  (563) 
Saccharolipids

>  <chemical_sub_class>  (563) 
Saccharolipids

>  <chemical_super_class>  (563) 
Lipids and lipid-like molecules

>  <direct_parent_classification>  (563) 
Saccharolipids

>  <np_classifier_pathway>  (563) 
Fatty acids

>  <np_classifier_superclass>  (563) 
Fatty acyls

>  <np_classifier_class>  (563) 
Resin glycosides

>  <np_classifier_is_glycoside>  (563) 
True

>  <organisms>  (563) 
Ipomea purga

>  <collections>  (563) 
BIOFACQUIM|Latin America dataset

>  <dois>  (563) 
10.1021/np500762w

>  <synonyms>  (563) 
Purgic acid A

>  <cas>  (563) 
nan

$$$$

     RDKit          2D

 12 12  0  0  0  0  0  0  0  0999 V2000
   -3.6555    1.1442    0.0000 C   0  0  0  0  0  0  0  0  0  0  0  0
   -2.8129   -0.0968    0.0000 O   0  0  0  0  0  0  0  0  0  0  0  0
   -1.3169    0.0124    0.0000 C   0  0  0  0  0  0  0  0  0  0  0  0
   -0.6635    1.3626    0.0000 C   0  0  0  0  0  0  0  0  0  0  0  0
    0.8326    1.4718    0.0000 C   0  0  0  0  0  0  0  0  0  0  0  0
    1.4860    2.8220    0.0000 O   0  0  0  0  0  0  0  0  0  0  0  0
    1.6751    0.2308    0.0000 C   0  0  0  0  0  0  0  0  0  0  0  0
    3.1712    0.3400    0.0000 O   0  0  0  0  0  0  0  0  0  0  0  0
    1.0217   -1.1194    0.0000 C   0  0  0  0  0  0  0  0  0  0  0  0
    1.8643   -2.3604    0.0000 C   0  0  0  0  0  0  0  0  0  0  0  0
   -0.4743   -1.2286    0.0000 C   0  0  0  0  0  0  0  0  0  0  0  0
   -1.1277   -2.5788    0.0000 O   0  0  0  0  0  0  0  0  0  0  0  0
  1  2  1  0
  2  3  1  0
  3  4  2  0
  4  5  1  0
  5  6  2  0
  5  7  1  0
  7  8  1  0
  7  9  2  0
  9 10  1  0
  9 11  1  0
 11 12  2  0
 11  3  1  0
M  END
>  <identifier>  (564) 
CNP0164479.0

>  <canonical_smiles>  (564) 
COC1=CC(=O)C(O)=C(C)C1=O

>  <standard_inchi>  (564) 
InChI=1S/C8H8O4/c1-4-7(10)5(9)3-6(12-2)8(4)11/h3,10H,1-2H3

>  <standard_inchi_key>  (564) 
KGGCKPCQFGNZTC-UHFFFAOYSA-N

>  <name>  (564) 
2-hydroxy-5-methoxy-3-methylcyclohexa-2,5-diene-1,4-dione

>  <iupac_name>  (564) 
2-hydroxy-5-methoxy-3-methyl-1,4-benzoquinone

>  <annotation_level>  (564) 
5

>  <total_atom_count>  (564) 
20

>  <heavy_atom_count>  (564) 
12

>  <molecular_weight>  (564) 
168.15

>  <exact_molecular_weight>  (564) 
168.04226

>  <molecular_formula>  (564) 
C8H8O4

>  <alogp>  (564) 
0.50

>  <topological_polar_surface_area>  (564) 
63.60

>  <rotatable_bond_count>  (564) 
1

>  <hydrogen_bond_acceptors>  (564) 
4

>  <hydrogen_bond_donors>  (564) 
1

>  <hydrogen_bond_acceptors_lipinski>  (564) 
4

>  <hydrogen_bond_donors_lipinski>  (564) 
1

>  <lipinski_rule_of_five_violations>  (564) 
0

>  <aromatic_rings_count>  (564) 
0

>  <qed_drug_likeliness>  (564) 
0.58

>  <formal_charge>  (564) 
0

>  <fractioncsp3>  (564) 
0.25

>  <number_of_minimal_rings>  (564) 
1

>  <van_der_walls_volume>  (564) 
146.59

>  <contains_sugar>  (564) 
False

>  <contains_ring_sugars>  (564) 
False

>  <contains_linear_sugars>  (564) 
False

>  <murcko_framework>  (564) 
C1=CCC=CC1

>  <np_likeness>  (564) 
2.44

>  <chemical_class>  (564) 
Organooxygen compounds

>  <chemical_sub_class>  (564) 
Carbonyl compounds

>  <chemical_super_class>  (564) 
Organic oxygen compounds

>  <direct_parent_classification>  (564) 
Quinones

>  <np_classifier_pathway>  (564) 
Polyketides

>  <np_classifier_superclass>  (564) 
Aromatic polyketides

>  <np_classifier_class>  (564) 
Benzoquinones

>  <np_classifier_is_glycoside>  (564) 
False

>  <organisms>  (564) 
Xylaria feejeensis|Xylaria sp.

>  <collections>  (564) 
BIOFACQUIM|EMNPD|Latin America dataset|NPASS|Super Natural II|UNPD (Universal Natural Products Database)

>  <dois>  (564) 
10.1021/acs.jafc.6b01111

>  <synonyms>  (564) 
CHEMBL253356|SCHEMBL15212939|2-hydroxy-5-methoxy-3-methylcyclohexa-2|5-diene-1|4-dione

>  <cas>  (564) 
nan

$$$$

     RDKit          2D

 81 86  0  0  0  0  0  0  0  0999 V2000
   -8.8298   -5.8395    0.0000 C   0  0  0  0  0  0  0  0  0  0  0  0
   -8.7295   -4.3429    0.0000 C   0  0  0  0  0  0  0  0  0  0  0  0
   -7.3832   -3.6814    0.0000 C   0  0  0  0  0  0  0  0  0  0  0  0
   -7.2830   -2.1847    0.0000 C   0  0  0  0  0  0  0  0  0  0  0  0
   -5.9367   -1.5232    0.0000 C   0  0  0  0  0  0  0  0  0  0  0  0
   -5.8364   -0.0266    0.0000 C   0  0  0  0  0  0  0  0  0  0  0  0
   -7.0824    0.8086    0.0000 C   0  0  0  0  0  0  0  0  0  0  0  0
   -8.4287    0.1471    0.0000 C   0  0  0  0  0  0  0  0  0  0  0  0
   -9.6747    0.9822    0.0000 C   0  0  0  0  0  0  0  0  0  0  0  0
  -11.0210    0.3207    0.0000 C   0  0  0  0  0  0  0  0  0  0  0  0
  -12.2670    1.1559    0.0000 C   0  0  0  0  0  0  0  0  0  0  0  0
  -13.6132    0.4944    0.0000 C   0  0  0  0  0  0  0  0  0  0  0  0
  -14.8592    1.3296    0.0000 C   0  0  0  0  0  0  0  0  0  0  0  0
  -16.2055    0.6681    0.0000 C   0  0  0  0  0  0  0  0  0  0  0  0
  -17.4515    1.5032    0.0000 C   0  0  0  0  0  0  0  0  0  0  0  0
  -18.7978    0.8417    0.0000 C   0  0  0  0  0  0  0  0  0  0  0  0
  -18.8980   -0.6549    0.0000 O   0  0  0  0  0  0  0  0  0  0  0  0
  -20.0438    1.6769    0.0000 O   0  0  0  0  0  0  0  0  0  0  0  0
   -4.4902    0.6349    0.0000 O   0  0  0  0  0  0  0  0  0  0  0  0
   -4.3899    2.1315    0.0000 C   0  0  0  0  0  0  0  0  0  0  0  0
   -5.6359    2.9667    0.0000 O   0  0  0  0  0  0  0  0  0  0  0  0
   -5.5357    4.4633    0.0000 C   0  0  0  0  0  0  0  0  0  0  0  0
   -6.7817    5.2985    0.0000 C   0  0  0  0  0  0  0  0  0  0  0  0
   -4.1894    5.1248    0.0000 C   0  0  0  0  0  0  0  0  0  0  0  0
   -4.0891    6.6215    0.0000 O   0  0  0  0  0  0  0  0  0  0  0  0
   -2.9434    4.2897    0.0000 C   0  0  0  0  0  0  0  0  0  0  0  0
   -1.5971    4.9512    0.0000 O   0  0  0  0  0  0  0  0  0  0  0  0
   -3.0437    2.7930    0.0000 C   0  0  0  0  0  0  0  0  0  0  0  0
   -1.7977    1.9579    0.0000 O   0  0  0  0  0  0  0  0  0  0  0  0
   -1.8979    0.4612    0.0000 C   0  0  0  0  0  0  0  0  0  0  0  0
   -3.2442   -0.2003    0.0000 O   0  0  0  0  0  0  0  0  0  0  0  0
   -3.3444   -1.6969    0.0000 C   0  0  0  0  0  0  0  0  0  0  0  0
   -4.6907   -2.3584    0.0000 C   0  0  0  0  0  0  0  0  0  0  0  0
   -4.7910   -3.8550    0.0000 O   0  0  0  0  0  0  0  0  0  0  0  0
   -2.0984   -2.5321    0.0000 C   0  0  0  0  0  0  0  0  0  0  0  0
   -2.1987   -4.0287    0.0000 O   0  0  0  0  0  0  0  0  0  0  0  0
   -0.7522   -1.8706    0.0000 C   0  0  0  0  0  0  0  0  0  0  0  0
    0.4938   -2.7057    0.0000 O   0  0  0  0  0  0  0  0  0  0  0  0
   -0.6519   -0.3739    0.0000 C   0  0  0  0  0  0  0  0  0  0  0  0
    0.6944    0.2876    0.0000 O   0  0  0  0  0  0  0  0  0  0  0  0
    1.9404   -0.5476    0.0000 C   0  0  0  0  0  0  0  0  0  0  0  0
    1.8401   -2.0442    0.0000 O   0  0  0  0  0  0  0  0  0  0  0  0
    3.0861   -2.8794    0.0000 C   0  0  0  0  0  0  0  0  0  0  0  0
    2.9858   -4.3760    0.0000 C   0  0  0  0  0  0  0  0  0  0  0  0
    4.4324   -2.2179    0.0000 C   0  0  0  0  0  0  0  0  0  0  0  0
    5.6784   -3.0531    0.0000 O   0  0  0  0  0  0  0  0  0  0  0  0
    5.5781   -4.5497    0.0000 C   0  0  0  0  0  0  0  0  0  0  0  0
    4.2318   -5.2112    0.0000 O   0  0  0  0  0  0  0  0  0  0  0  0
    4.1316   -6.7078    0.0000 C   0  0  0  0  0  0  0  0  0  0  0  0
    2.7853   -7.3693    0.0000 C   0  0  0  0  0  0  0  0  0  0  0  0
    5.3776   -7.5430    0.0000 C   0  0  0  0  0  0  0  0  0  0  0  0
    5.2773   -9.0396    0.0000 O   0  0  0  0  0  0  0  0  0  0  0  0
    6.7238   -6.8815    0.0000 C   0  0  0  0  0  0  0  0  0  0  0  0
    7.9698   -7.7167    0.0000 O   0  0  0  0  0  0  0  0  0  0  0  0
    6.8241   -5.3849    0.0000 C   0  0  0  0  0  0  0  0  0  0  0  0
    8.1704   -4.7234    0.0000 O   0  0  0  0  0  0  0  0  0  0  0  0
    4.5326   -0.7213    0.0000 C   0  0  0  0  0  0  0  0  0  0  0  0
    5.8789   -0.0598    0.0000 O   0  0  0  0  0  0  0  0  0  0  0  0
    5.9791    1.4369    0.0000 C   0  0  0  0  0  0  0  0  0  0  0  0
    4.7331    2.2720    0.0000 O   0  0  0  0  0  0  0  0  0  0  0  0
    4.8334    3.7687    0.0000 C   0  0  0  0  0  0  0  0  0  0  0  0
    3.5874    4.6038    0.0000 C   0  0  0  0  0  0  0  0  0  0  0  0
    3.6877    6.1005    0.0000 O   0  0  0  0  0  0  0  0  0  0  0  0
    6.1797    4.4302    0.0000 C   0  0  0  0  0  0  0  0  0  0  0  0
    6.2799    5.9268    0.0000 O   0  0  0  0  0  0  0  0  0  0  0  0
    7.4257    3.5950    0.0000 C   0  0  0  0  0  0  0  0  0  0  0  0
    8.7719    4.2565    0.0000 O   0  0  0  0  0  0  0  0  0  0  0  0
    7.3254    2.0984    0.0000 C   0  0  0  0  0  0  0  0  0  0  0  0
    8.5714    1.2632    0.0000 O   0  0  0  0  0  0  0  0  0  0  0  0
    9.9177    1.9247    0.0000 C   0  0  0  0  0  0  0  0  0  0  0  0
   10.0179    3.4213    0.0000 O   0  0  0  0  0  0  0  0  0  0  0  0
   11.3642    4.0828    0.0000 C   0  0  0  0  0  0  0  0  0  0  0  0
   11.4645    5.5795    0.0000 C   0  0  0  0  0  0  0  0  0  0  0  0
   12.6102    3.2477    0.0000 C   0  0  0  0  0  0  0  0  0  0  0  0
   13.9565    3.9092    0.0000 O   0  0  0  0  0  0  0  0  0  0  0  0
   12.5099    1.7510    0.0000 C   0  0  0  0  0  0  0  0  0  0  0  0
   13.7559    0.9159    0.0000 O   0  0  0  0  0  0  0  0  0  0  0  0
   11.1637    1.0895    0.0000 C   0  0  0  0  0  0  0  0  0  0  0  0
   11.0634   -0.4071    0.0000 O   0  0  0  0  0  0  0  0  0  0  0  0
    3.2866    0.1139    0.0000 C   0  0  0  0  0  0  0  0  0  0  0  0
    3.3869    1.6105    0.0000 O   0  0  0  0  0  0  0  0  0  0  0  0
  1  2  1  0
  2  3  1  0
  3  4  1  0
  4  5  1  0
  6  5  1  6
  6  7  1  0
  7  8  1  0
  8  9  1  0
  9 10  1  0
 10 11  1  0
 11 12  1  0
 12 13  1  0
 13 14  1  0
 14 15  1  0
 15 16  1  0
 16 17  2  0
 16 18  1  0
  6 19  1  0
 20 19  1  6
 20 21  1  0
 21 22  1  0
 22 23  1  6
 22 24  1  0
 24 25  1  1
 24 26  1  0
 26 27  1  6
 26 28  1  0
 28 29  1  1
 30 29  1  1
 30 31  1  0
 31 32  1  0
 32 33  1  1
 33 34  1  0
 32 35  1  0
 35 36  1  6
 35 37  1  0
 37 38  1  1
 37 39  1  0
 39 40  1  6
 41 40  1  1
 41 42  1  0
 42 43  1  0
 43 44  1  6
 43 45  1  0
 45 46  1  1
 47 46  1  1
 47 48  1  0
 48 49  1  0
 49 50  1  1
 49 51  1  0
 51 52  1  1
 51 53  1  0
 53 54  1  1
 53 55  1  0
 55 56  1  6
 45 57  1  0
 57 58  1  6
 59 58  1  1
 59 60  1  0
 60 61  1  0
 61 62  1  1
 62 63  1  0
 61 64  1  0
 64 65  1  6
 64 66  1  0
 66 67  1  1
 66 68  1  0
 68 69  1  6
 70 69  1  1
 70 71  1  0
 71 72  1  0
 72 73  1  1
 72 74  1  0
 74 75  1  6
 74 76  1  0
 76 77  1  1
 76 78  1  0
 78 79  1  6
 57 80  1  0
 80 81  1  6
 28 20  1  0
 39 30  1  0
 80 41  1  0
 55 47  1  0
 68 59  1  0
 78 70  1  0
M  END
>  <identifier>  (565) 
CNP0264578.2

>  <canonical_smiles>  (565) 
CCCCC[C@H](CCCCCCCCCC(=O)O)O[C@@H]1O[C@H](C)[C@@H](O)[C@H](O)[C@H]1O[C@@H]1O[C@H](CO)[C@@H](O)[C@H](O)[C@H]1O[C@@H]1O[C@@H](C)[C@H](O[C@@H]2O[C@H](C)[C@H](O)[C@H](O)[C@H]2O)[C@@H](O[C@H]2O[C@@H](CO)[C@H](O)[C@@H](O)[C@@H]2O[C@H]2O[C@@H](C)[C@H](O)[C@@H](O)[C@@H]2O)[C@H]1O

>  <standard_inchi>  (565) 
InChI=1S/C52H92O29/c1-6-7-13-16-25(17-14-11-9-8-10-12-15-18-28(55)56)74-50-44(36(64)31(59)23(4)72-50)81-52-46(38(66)33(61)27(20-54)76-52)80-49-41(69)43(42(24(5)73-49)77-47-39(67)34(62)29(57)21(2)70-47)78-51-45(37(65)32(60)26(19-53)75-51)79-48-40(68)35(63)30(58)22(3)71-48/h21-27,29-54,57-69H,6-20H2,1-5H3,(H,55,56)/t21-,22+,23-,24+,25-,26+,27-,29+,30+,31-,32+,33-,34+,35-,36+,37-,38+,39-,40+,41-,42+,43+,44-,45+,46-,47+,48-,49+,50+,51-,52+/m1/s1

>  <standard_inchi_key>  (565) 
YTQXXUYELDKIKL-OVYAZSADSA-N

>  <name>  (565) 
nan

>  <iupac_name>  (565) 
(11~{R})-11-[(2~{R},3~{R},4~{S},5~{S},6~{R})-3-[(2~{S},3~{R},4~{S},5~{S},6~{R})-3-[(2~{S},3~{R},4~{S},5~{S},6~{S})-4-[(2~{R},3~{S},4~{R},5~{R},6~{S})-4,5-dihydroxy-6-(hydroxymethyl)-3-[(2~{R},3~{S},4~{R},5~{R},6~{S})-3,4,5-trihydroxy-6-methyl-tetrahydropyran-2-yl]oxy-tetrahydropyran-2-yl]oxy-3-hydroxy-6-methyl-5-[(2~{S},3~{R},4~{S},5~{R},6~{R})-3,4,5-trihydroxy-6-methyl-tetrahydropyran-2-yl]oxy-tetrahydropyran-2-yl]oxy-4,5-dihydroxy-6-(hydroxymethyl)tetrahydropyran-2-yl]oxy-4,5-dihydroxy-6-methyl-tetrahydropyran-2-yl]oxyhexadecanoic acid

>  <annotation_level>  (565) 
5

>  <total_atom_count>  (565) 
173

>  <heavy_atom_count>  (565) 
81

>  <molecular_weight>  (565) 
1181.28

>  <exact_molecular_weight>  (565) 
1180.57243

>  <molecular_formula>  (565) 
C52H92O29

>  <alogp>  (565) 
-4.42

>  <topological_polar_surface_area>  (565) 
451.51

>  <rotatable_bond_count>  (565) 
28

>  <hydrogen_bond_acceptors>  (565) 
28

>  <hydrogen_bond_donors>  (565) 
16

>  <hydrogen_bond_acceptors_lipinski>  (565) 
28

>  <hydrogen_bond_donors_lipinski>  (565) 
16

>  <lipinski_rule_of_five_violations>  (565) 
3

>  <aromatic_rings_count>  (565) 
0

>  <qed_drug_likeliness>  (565) 
0.03

>  <formal_charge>  (565) 
0

>  <fractioncsp3>  (565) 
0.98

>  <number_of_minimal_rings>  (565) 
6

>  <van_der_walls_volume>  (565) 
1052.32

>  <contains_sugar>  (565) 
True

>  <contains_ring_sugars>  (565) 
True

>  <contains_linear_sugars>  (565) 
False

>  <murcko_framework>  (565) 
O1CCCC(OC2OCCCC2OC3OCC(OC4OCCCC4)C(OC5OCCCC5OC6OCCCC6)C3)C1

>  <np_likeness>  (565) 
0.93

>  <chemical_class>  (565) 
Saccharolipids

>  <chemical_sub_class>  (565) 
Saccharolipids

>  <chemical_super_class>  (565) 
Lipids and lipid-like molecules

>  <direct_parent_classification>  (565) 
Saccharolipids

>  <np_classifier_pathway>  (565) 
Fatty acids

>  <np_classifier_superclass>  (565) 
Fatty acyls

>  <np_classifier_class>  (565) 
Resin glycosides

>  <np_classifier_is_glycoside>  (565) 
True

>  <organisms>  (565) 
Ipomea purga

>  <collections>  (565) 
BIOFACQUIM|Latin America dataset

>  <dois>  (565) 
10.1021/np500762w

>  <synonyms>  (565) 
Purgic acid B

>  <cas>  (565) 
nan

$$$$

     RDKit          2D

 89 95  0  0  0  0  0  0  0  0999 V2000
   -4.9889    2.1012    0.0000 C   0  0  0  0  0  0  0  0  0  0  0  0
   -3.8248    3.0471    0.0000 C   0  0  0  0  0  0  0  0  0  0  0  0
   -2.5947    2.1887    0.0000 C   0  0  0  0  0  0  0  0  0  0  0  0
   -1.2362    2.8248    0.0000 C   0  0  0  0  0  0  0  0  0  0  0  0
   -0.0061    1.9664    0.0000 C   0  0  0  0  0  0  0  0  0  0  0  0
    1.3523    2.6024    0.0000 C   0  0  0  0  0  0  0  0  0  0  0  0
    2.5824    1.7440    0.0000 C   0  0  0  0  0  0  0  0  0  0  0  0
    3.9409    2.3801    0.0000 C   0  0  0  0  0  0  0  0  0  0  0  0
    5.1710    1.5217    0.0000 C   0  0  0  0  0  0  0  0  0  0  0  0
    6.5294    2.1578    0.0000 C   0  0  0  0  0  0  0  0  0  0  0  0
    7.7595    1.2994    0.0000 C   0  0  0  0  0  0  0  0  0  0  0  0
    9.1179    1.9355    0.0000 C   0  0  0  0  0  0  0  0  0  0  0  0
    9.2463    3.4300    0.0000 C   0  0  0  0  0  0  0  0  0  0  0  0
    8.0162    4.2884    0.0000 C   0  0  0  0  0  0  0  0  0  0  0  0
    6.6578    3.6523    0.0000 O   0  0  0  0  0  0  0  0  0  0  0  0
    8.1446    5.7829    0.0000 O   0  0  0  0  0  0  0  0  0  0  0  0
   10.3480    1.0771    0.0000 C   0  0  0  0  0  0  0  0  0  0  0  0
   10.2197   -0.4174    0.0000 O   0  0  0  0  0  0  0  0  0  0  0  0
   11.4498   -1.2758    0.0000 C   0  0  0  0  0  0  0  0  0  0  0  0
   11.3214   -2.7703    0.0000 C   0  0  0  0  0  0  0  0  0  0  0  0
   12.8082   -0.6397    0.0000 C   0  0  0  0  0  0  0  0  0  0  0  0
   14.0383   -1.4981    0.0000 O   0  0  0  0  0  0  0  0  0  0  0  0
   12.9366    0.8548    0.0000 C   0  0  0  0  0  0  0  0  0  0  0  0
   14.2950    1.4909    0.0000 O   0  0  0  0  0  0  0  0  0  0  0  0
   11.7065    1.7132    0.0000 C   0  0  0  0  0  0  0  0  0  0  0  0
   11.8349    3.2077    0.0000 O   0  0  0  0  0  0  0  0  0  0  0  0
   -1.1079    4.3193    0.0000 O   0  0  0  0  0  0  0  0  0  0  0  0
   -2.3380    5.1777    0.0000 C   0  0  0  0  0  0  0  0  0  0  0  0
   -2.2096    6.6722    0.0000 O   0  0  0  0  0  0  0  0  0  0  0  0
   -3.4397    7.5306    0.0000 C   0  0  0  0  0  0  0  0  0  0  0  0
   -3.3114    9.0251    0.0000 C   0  0  0  0  0  0  0  0  0  0  0  0
   -4.7982    6.8945    0.0000 C   0  0  0  0  0  0  0  0  0  0  0  0
   -6.0283    7.7529    0.0000 O   0  0  0  0  0  0  0  0  0  0  0  0
   -4.9265    5.4000    0.0000 C   0  0  0  0  0  0  0  0  0  0  0  0
   -6.2850    4.7639    0.0000 O   0  0  0  0  0  0  0  0  0  0  0  0
   -3.6964    4.5416    0.0000 C   0  0  0  0  0  0  0  0  0  0  0  0
   -3.8248    3.0471    0.0000 O   0  0  0  0  0  0  0  0  0  0  0  0
   -5.1832    2.4110    0.0000 C   0  0  0  0  0  0  0  0  0  0  0  0
   -6.4133    3.2694    0.0000 O   0  0  0  0  0  0  0  0  0  0  0  0
   -7.7718    2.6333    0.0000 C   0  0  0  0  0  0  0  0  0  0  0  0
   -9.0019    3.4917    0.0000 C   0  0  0  0  0  0  0  0  0  0  0  0
  -10.3603    2.8556    0.0000 O   0  0  0  0  0  0  0  0  0  0  0  0
   -7.9001    1.1388    0.0000 C   0  0  0  0  0  0  0  0  0  0  0  0
   -9.2586    0.5027    0.0000 O   0  0  0  0  0  0  0  0  0  0  0  0
   -6.6700    0.2804    0.0000 C   0  0  0  0  0  0  0  0  0  0  0  0
   -6.7984   -1.2141    0.0000 O   0  0  0  0  0  0  0  0  0  0  0  0
   -5.3116    0.9165    0.0000 C   0  0  0  0  0  0  0  0  0  0  0  0
   -4.0815    0.0581    0.0000 O   0  0  0  0  0  0  0  0  0  0  0  0
   -4.2098   -1.4364    0.0000 C   0  0  0  0  0  0  0  0  0  0  0  0
   -5.5683   -2.0725    0.0000 O   0  0  0  0  0  0  0  0  0  0  0  0
   -5.6966   -3.5670    0.0000 C   0  0  0  0  0  0  0  0  0  0  0  0
   -7.0551   -4.2031    0.0000 C   0  0  0  0  0  0  0  0  0  0  0  0
   -4.4666   -4.4254    0.0000 C   0  0  0  0  0  0  0  0  0  0  0  0
   -4.5949   -5.9199    0.0000 O   0  0  0  0  0  0  0  0  0  0  0  0
   -3.3648   -6.7783    0.0000 C   0  0  0  0  0  0  0  0  0  0  0  0
   -3.4932   -8.2728    0.0000 O   0  0  0  0  0  0  0  0  0  0  0  0
   -2.2631   -9.1312    0.0000 C   0  0  0  0  0  0  0  0  0  0  0  0
   -2.3914  -10.6257    0.0000 C   0  0  0  0  0  0  0  0  0  0  0  0
   -0.9046   -8.4951    0.0000 C   0  0  0  0  0  0  0  0  0  0  0  0
    0.3255   -9.3535    0.0000 O   0  0  0  0  0  0  0  0  0  0  0  0
   -0.7763   -7.0006    0.0000 C   0  0  0  0  0  0  0  0  0  0  0  0
    0.5822   -6.3645    0.0000 O   0  0  0  0  0  0  0  0  0  0  0  0
   -2.0064   -6.1422    0.0000 C   0  0  0  0  0  0  0  0  0  0  0  0
   -1.5202   -4.7232    0.0000 O   0  0  0  0  0  0  0  0  0  0  0  0
   -3.1081   -3.7893    0.0000 C   0  0  0  0  0  0  0  0  0  0  0  0
   -1.8780   -4.6477    0.0000 O   0  0  0  0  0  0  0  0  0  0  0  0
   -0.5196   -4.0116    0.0000 C   0  0  0  0  0  0  0  0  0  0  0  0
    0.7105   -4.8700    0.0000 O   0  0  0  0  0  0  0  0  0  0  0  0
    2.0690   -4.2340    0.0000 C   0  0  0  0  0  0  0  0  0  0  0  0
    3.2991   -5.0924    0.0000 C   0  0  0  0  0  0  0  0  0  0  0  0
    4.6575   -4.4563    0.0000 O   0  0  0  0  0  0  0  0  0  0  0  0
    2.1973   -2.7395    0.0000 C   0  0  0  0  0  0  0  0  0  0  0  0
    3.5558   -2.1034    0.0000 O   0  0  0  0  0  0  0  0  0  0  0  0
    0.9672   -1.8810    0.0000 C   0  0  0  0  0  0  0  0  0  0  0  0
    1.0956   -0.3865    0.0000 O   0  0  0  0  0  0  0  0  0  0  0  0
   -0.3912   -2.5171    0.0000 C   0  0  0  0  0  0  0  0  0  0  0  0
   -1.6213   -1.6587    0.0000 O   0  0  0  0  0  0  0  0  0  0  0  0
   -1.4929   -0.1642    0.0000 C   0  0  0  0  0  0  0  0  0  0  0  0
   -0.1345    0.4719    0.0000 O   0  0  0  0  0  0  0  0  0  0  0  0
   -0.0061    1.9664    0.0000 C   0  0  0  0  0  0  0  0  0  0  0  0
    1.4659    2.2548    0.0000 C   0  0  0  0  0  0  0  0  0  0  0  0
   -1.2362    2.8248    0.0000 C   0  0  0  0  0  0  0  0  0  0  0  0
   -0.7501    4.2438    0.0000 O   0  0  0  0  0  0  0  0  0  0  0  0
   -2.5947    2.1887    0.0000 C   0  0  0  0  0  0  0  0  0  0  0  0
   -3.2777    3.5242    0.0000 O   0  0  0  0  0  0  0  0  0  0  0  0
   -2.7230    0.6942    0.0000 C   0  0  0  0  0  0  0  0  0  0  0  0
   -4.1950    0.4057    0.0000 O   0  0  0  0  0  0  0  0  0  0  0  0
   -2.9797   -2.2948    0.0000 C   0  0  0  0  0  0  0  0  0  0  0  0
   -1.8156   -1.3489    0.0000 O   0  0  0  0  0  0  0  0  0  0  0  0
  1  2  1  0
  2  3  1  0
  4  3  1  1
  4  5  1  0
  5  6  1  0
  6  7  1  0
  7  8  1  0
  8  9  1  0
  9 10  1  0
 10 11  1  0
 12 11  1  6
 12 13  1  0
 13 14  1  0
 14 15  2  0
 14 16  1  0
 12 17  1  0
 17 18  1  6
 18 19  1  0
 19 20  1  1
 19 21  1  0
 21 22  1  6
 21 23  1  0
 23 24  1  1
 23 25  1  0
 25 26  1  6
  4 27  1  0
 28 27  1  1
 28 29  1  0
 29 30  1  0
 30 31  1  1
 30 32  1  0
 32 33  1  6
 32 34  1  0
 34 35  1  1
 34 36  1  0
 36 37  1  6
 38 37  1  1
 38 39  1  0
 39 40  1  0
 40 41  1  1
 41 42  1  0
 40 43  1  0
 43 44  1  6
 43 45  1  0
 45 46  1  1
 45 47  1  0
 47 48  1  6
 49 48  1  1
 49 50  1  0
 50 51  1  0
 51 52  1  6
 51 53  1  0
 53 54  1  1
 55 54  1  1
 55 56  1  0
 56 57  1  0
 57 58  1  1
 57 59  1  0
 59 60  1  1
 59 61  1  0
 61 62  1  1
 61 63  1  0
 63 64  1  6
 53 65  1  0
 65 66  1  6
 67 66  1  6
 67 68  1  0
 68 69  1  0
 69 70  1  6
 70 71  1  0
 69 72  1  0
 72 73  1  1
 72 74  1  0
 74 75  1  6
 74 76  1  0
 76 77  1  1
 78 77  1  6
 78 79  1  0
 79 80  1  0
 80 81  1  6
 80 82  1  0
 82 83  1  1
 82 84  1  0
 84 85  1  6
 84 86  1  0
 86 87  1  1
 65 88  1  0
 88 89  1  6
 25 17  1  0
 36 28  1  0
 47 38  1  0
 88 49  1  0
 63 55  1  0
 76 67  1  0
 86 78  1  0
M  END
>  <identifier>  (566) 
CNP0436838.1

>  <canonical_smiles>  (566) 
CCC[C@H](CCCCCCC[C@H](CC(=O)O)[C@H]1O[C@H](C)[C@@H](O)[C@H](O)[C@H]1O)O[C@@H]1O[C@H](C)[C@@H](O)[C@H](O)[C@H]1O[C@@H]1O[C@H](CO)[C@@H](O)[C@H](O)[C@H]1O[C@@H]1O[C@@H](C)[C@H](O[C@@H]2O[C@H](C)[C@H](O)[C@H](O)[C@H]2O)[C@@H](O[C@H]2O[C@@H](CO)[C@H](O)[C@@H](O)[C@@H]2O[C@H]2O[C@@H](C)[C@H](O)[C@@H](O)[C@@H]2O)[C@H]1O

>  <standard_inchi>  (566) 
InChI=1S/C56H98O33/c1-7-13-25(15-12-10-8-9-11-14-24(16-28(59)60)46-41(73)35(67)29(61)19(2)77-46)82-54-48(38(70)32(64)22(5)80-54)89-56-50(40(72)34(66)27(18-58)84-56)88-53-44(76)47(45(23(6)81-53)85-51-42(74)36(68)30(62)20(3)78-51)86-55-49(39(71)33(65)26(17-57)83-55)87-52-43(75)37(69)31(63)21(4)79-52/h19-27,29-58,61-76H,7-18H2,1-6H3,(H,59,60)/t19-,20-,21+,22-,23+,24-,25-,26+,27-,29-,30+,31+,32-,33+,34-,35+,36+,37-,38+,39-,40+,41-,42-,43+,44-,45+,46-,47+,48-,49+,50-,51+,52-,53+,54+,55-,56+/m1/s1

>  <standard_inchi_key>  (566) 
NTWVQFVYJQQKQR-ZYWVNUOESA-N

>  <name>  (566) 
nan

>  <iupac_name>  (566) 
(3~{R},11~{R})-11-[(2~{R},3~{R},4~{S},5~{S},6~{R})-3-[(2~{S},3~{R},4~{S},5~{S},6~{R})-3-[(2~{S},3~{R},4~{S},5~{S},6~{S})-4-[(2~{R},3~{S},4~{R},5~{R},6~{S})-4,5-dihydroxy-6-(hydroxymethyl)-3-[(2~{R},3~{S},4~{R},5~{R},6~{S})-3,4,5-trihydroxy-6-methyl-tetrahydropyran-2-yl]oxy-tetrahydropyran-2-yl]oxy-3-hydroxy-6-methyl-5-[(2~{S},3~{R},4~{S},5~{R},6~{R})-3,4,5-trihydroxy-6-methyl-tetrahydropyran-2-yl]oxy-tetrahydropyran-2-yl]oxy-4,5-dihydroxy-6-(hydroxymethyl)tetrahydropyran-2-yl]oxy-4,5-dihydroxy-6-methyl-tetrahydropyran-2-yl]oxy-3-[(2~{R},3~{R},4~{S},5~{S},6~{R})-3,4,5-trihydroxy-6-methyl-tetrahydropyran-2-yl]tetradecanoic acid

>  <annotation_level>  (566) 
5

>  <total_atom_count>  (566) 
187

>  <heavy_atom_count>  (566) 
89

>  <molecular_weight>  (566) 
1299.37

>  <exact_molecular_weight>  (566) 
1298.59904

>  <molecular_formula>  (566) 
C56H98O33

>  <alogp>  (566) 
-7.11

>  <topological_polar_surface_area>  (566) 
521.43

>  <rotatable_bond_count>  (566) 
27

>  <hydrogen_bond_acceptors>  (566) 
32

>  <hydrogen_bond_donors>  (566) 
19

>  <hydrogen_bond_acceptors_lipinski>  (566) 
32

>  <hydrogen_bond_donors_lipinski>  (566) 
19

>  <lipinski_rule_of_five_violations>  (566) 
3

>  <aromatic_rings_count>  (566) 
0

>  <qed_drug_likeliness>  (566) 
0.03

>  <formal_charge>  (566) 
0

>  <fractioncsp3>  (566) 
0.98

>  <number_of_minimal_rings>  (566) 
7

>  <van_der_walls_volume>  (566) 
1141.88

>  <contains_sugar>  (566) 
True

>  <contains_ring_sugars>  (566) 
True

>  <contains_linear_sugars>  (566) 
False

>  <murcko_framework>  (566) 
O1CCCCC1OC2COC(OC3CCCOC3OC4CCCOC4OCCCCCCCCCC5OCCCC5)CC2OC6OCCCC6OC7OCCCC7

>  <np_likeness>  (566) 
0.97

>  <chemical_class>  (566) 
Saccharolipids

>  <chemical_sub_class>  (566) 
Saccharolipids

>  <chemical_super_class>  (566) 
Lipids and lipid-like molecules

>  <direct_parent_classification>  (566) 
Saccharolipids

>  <np_classifier_pathway>  (566) 
Fatty acids

>  <np_classifier_superclass>  (566) 
Fatty acyls

>  <np_classifier_class>  (566) 
Resin glycosides

>  <np_classifier_is_glycoside>  (566) 
True

>  <organisms>  (566) 
Ipomea purga

>  <collections>  (566) 
BIOFACQUIM|Latin America dataset

>  <dois>  (566) 
10.1021/np500762w

>  <synonyms>  (566) 
Purgic acid C

>  <cas>  (566) 
nan

$$$$

     RDKit          2D

117124  0  0  0  0  0  0  0  0999 V2000
   19.3163    3.0165    0.0000 C   0  0  0  0  0  0  0  0  0  0  0  0
   18.2558    1.9556    0.0000 C   0  0  0  0  0  0  0  0  0  0  0  0
   16.8068    2.3435    0.0000 C   0  0  0  0  0  0  0  0  0  0  0  0
   15.7464    1.2827    0.0000 C   0  0  0  0  0  0  0  0  0  0  0  0
   14.2974    1.6706    0.0000 C   0  0  0  0  0  0  0  0  0  0  0  0
   13.2370    0.6097    0.0000 C   0  0  0  0  0  0  0  0  0  0  0  0
   11.7880    0.9976    0.0000 C   0  0  0  0  0  0  0  0  0  0  0  0
   10.7276   -0.0633    0.0000 C   0  0  0  0  0  0  0  0  0  0  0  0
    9.2786    0.3247    0.0000 C   0  0  0  0  0  0  0  0  0  0  0  0
    8.2182   -0.7362    0.0000 C   0  0  0  0  0  0  0  0  0  0  0  0
    6.7692   -0.3483    0.0000 C   0  0  0  0  0  0  0  0  0  0  0  0
    5.7088   -1.4092    0.0000 C   0  0  0  0  0  0  0  0  0  0  0  0
    6.0973   -2.8580    0.0000 O   0  0  0  0  0  0  0  0  0  0  0  0
    4.2598   -1.0213    0.0000 O   0  0  0  0  0  0  0  0  0  0  0  0
    3.1994   -2.0821    0.0000 C   0  0  0  0  0  0  0  0  0  0  0  0
    3.5879   -3.5309    0.0000 C   0  0  0  0  0  0  0  0  0  0  0  0
    4.9000   -4.2580    0.0000 O   0  0  0  0  0  0  0  0  0  0  0  0
    2.5275   -4.5918    0.0000 C   0  0  0  0  0  0  0  0  0  0  0  0
    2.7365   -6.0772    0.0000 C   0  0  0  0  0  0  0  0  0  0  0  0
    1.0785   -4.2039    0.0000 O   0  0  0  0  0  0  0  0  0  0  0  0
    0.6900   -2.7551    0.0000 C   0  0  0  0  0  0  0  0  0  0  0  0
   -0.7590   -2.3672    0.0000 O   0  0  0  0  0  0  0  0  0  0  0  0
   -1.1475   -0.9184    0.0000 C   0  0  0  0  0  0  0  0  0  0  0  0
   -0.0871    0.1425    0.0000 C   0  0  0  0  0  0  0  0  0  0  0  0
    1.3619   -0.2454    0.0000 O   0  0  0  0  0  0  0  0  0  0  0  0
    1.7504   -1.6942    0.0000 C   0  0  0  0  0  0  0  0  0  0  0  0
    3.1994   -2.0821    0.0000 O   0  0  0  0  0  0  0  0  0  0  0  0
    3.5879   -3.5309    0.0000 C   0  0  0  0  0  0  0  0  0  0  0  0
    5.0369   -3.9189    0.0000 C   0  0  0  0  0  0  0  0  0  0  0  0
    5.4254   -5.3677    0.0000 O   0  0  0  0  0  0  0  0  0  0  0  0
    2.5275   -4.5918    0.0000 C   0  0  0  0  0  0  0  0  0  0  0  0
    3.0897   -5.9825    0.0000 O   0  0  0  0  0  0  0  0  0  0  0  0
    1.0785   -4.2039    0.0000 C   0  0  0  0  0  0  0  0  0  0  0  0
    0.3063   -5.4899    0.0000 O   0  0  0  0  0  0  0  0  0  0  0  0
    0.6900   -2.7551    0.0000 C   0  0  0  0  0  0  0  0  0  0  0  0
   -0.7590   -2.3672    0.0000 O   0  0  0  0  0  0  0  0  0  0  0  0
   -1.8194   -3.4281    0.0000 C   0  0  0  0  0  0  0  0  0  0  0  0
   -1.4309   -4.8769    0.0000 O   0  0  0  0  0  0  0  0  0  0  0  0
   -2.4913   -5.9377    0.0000 C   0  0  0  0  0  0  0  0  0  0  0  0
   -2.1028   -7.3866    0.0000 C   0  0  0  0  0  0  0  0  0  0  0  0
   -3.9403   -5.5498    0.0000 C   0  0  0  0  0  0  0  0  0  0  0  0
   -5.0007   -6.6107    0.0000 O   0  0  0  0  0  0  0  0  0  0  0  0
   -4.3288   -4.1010    0.0000 C   0  0  0  0  0  0  0  0  0  0  0  0
   -5.7778   -3.7131    0.0000 O   0  0  0  0  0  0  0  0  0  0  0  0
   -6.8383   -4.7740    0.0000 C   0  0  0  0  0  0  0  0  0  0  0  0
   -6.4497   -6.2228    0.0000 O   0  0  0  0  0  0  0  0  0  0  0  0
   -8.2872   -4.3861    0.0000 C   0  0  0  0  0  0  0  0  0  0  0  0
   -9.3477   -5.4469    0.0000 C   0  0  0  0  0  0  0  0  0  0  0  0
   -8.6758   -2.9372    0.0000 C   0  0  0  0  0  0  0  0  0  0  0  0
  -10.1247   -2.5493    0.0000 C   0  0  0  0  0  0  0  0  0  0  0  0
   -3.2684   -3.0401    0.0000 C   0  0  0  0  0  0  0  0  0  0  0  0
   -3.8306   -1.6495    0.0000 O   0  0  0  0  0  0  0  0  0  0  0  0
   -0.4756    1.5913    0.0000 C   0  0  0  0  0  0  0  0  0  0  0  0
    0.5848    2.6522    0.0000 O   0  0  0  0  0  0  0  0  0  0  0  0
    2.0338    2.2643    0.0000 C   0  0  0  0  0  0  0  0  0  0  0  0
    2.5960    0.8736    0.0000 O   0  0  0  0  0  0  0  0  0  0  0  0
    3.0942    3.3252    0.0000 C   0  0  0  0  0  0  0  0  0  0  0  0
    4.5432    2.9372    0.0000 C   0  0  0  0  0  0  0  0  0  0  0  0
    2.7057    4.7740    0.0000 C   0  0  0  0  0  0  0  0  0  0  0  0
    3.7661    5.8349    0.0000 C   0  0  0  0  0  0  0  0  0  0  0  0
   -1.9246    1.9792    0.0000 C   0  0  0  0  0  0  0  0  0  0  0  0
   -2.3131    3.4281    0.0000 O   0  0  0  0  0  0  0  0  0  0  0  0
   -1.2527    4.4889    0.0000 C   0  0  0  0  0  0  0  0  0  0  0  0
   -1.6412    5.9377    0.0000 C   0  0  0  0  0  0  0  0  0  0  0  0
   -3.0790    6.3654    0.0000 O   0  0  0  0  0  0  0  0  0  0  0  0
   -4.5777    6.3031    0.0000 C   0  0  0  0  0  0  0  0  0  0  0  0
   -5.9749    5.7576    0.0000 C   0  0  0  0  0  0  0  0  0  0  0  0
   -7.1194    4.7879    0.0000 O   0  0  0  0  0  0  0  0  0  0  0  0
   -7.8869    3.4992    0.0000 C   0  0  0  0  0  0  0  0  0  0  0  0
   -9.2844    4.0441    0.0000 C   0  0  0  0  0  0  0  0  0  0  0  0
  -10.4551    3.1063    0.0000 C   0  0  0  0  0  0  0  0  0  0  0  0
  -11.8526    3.6513    0.0000 C   0  0  0  0  0  0  0  0  0  0  0  0
   -8.1944    2.0310    0.0000 C   0  0  0  0  0  0  0  0  0  0  0  0
   -8.0086    0.5426    0.0000 C   0  0  0  0  0  0  0  0  0  0  0  0
   -7.3495   -0.8049    0.0000 C   0  0  0  0  0  0  0  0  0  0  0  0
   -6.2886   -1.8653    0.0000 C   0  0  0  0  0  0  0  0  0  0  0  0
   -4.9409   -2.5238    0.0000 C   0  0  0  0  0  0  0  0  0  0  0  0
   -3.4524   -2.7091    0.0000 C   0  0  0  0  0  0  0  0  0  0  0  0
   -1.9844   -2.4009    0.0000 C   0  0  0  0  0  0  0  0  0  0  0  0
   -0.6959   -1.6328    0.0000 C   0  0  0  0  0  0  0  0  0  0  0  0
    0.2737   -2.7772    0.0000 O   0  0  0  0  0  0  0  0  0  0  0  0
   -0.2325   -4.1892    0.0000 C   0  0  0  0  0  0  0  0  0  0  0  0
   -1.7085   -4.4568    0.0000 O   0  0  0  0  0  0  0  0  0  0  0  0
   -2.2147   -5.8688    0.0000 C   0  0  0  0  0  0  0  0  0  0  0  0
   -3.7115   -5.7713    0.0000 C   0  0  0  0  0  0  0  0  0  0  0  0
   -1.2450   -7.0132    0.0000 C   0  0  0  0  0  0  0  0  0  0  0  0
   -1.7513   -8.4252    0.0000 O   0  0  0  0  0  0  0  0  0  0  0  0
    0.2309   -6.7456    0.0000 C   0  0  0  0  0  0  0  0  0  0  0  0
    1.2006   -7.8901    0.0000 O   0  0  0  0  0  0  0  0  0  0  0  0
    0.7372   -5.3336    0.0000 C   0  0  0  0  0  0  0  0  0  0  0  0
    2.1659   -5.7905    0.0000 O   0  0  0  0  0  0  0  0  0  0  0  0
    0.2733   -0.4880    0.0000 C   0  0  0  0  0  0  0  0  0  0  0  0
    0.8182    0.9095    0.0000 C   0  0  0  0  0  0  0  0  0  0  0  0
    2.2379    0.4253    0.0000 O   0  0  0  0  0  0  0  0  0  0  0  0
    0.8799    2.4082    0.0000 O   0  0  0  0  0  0  0  0  0  0  0  0
    0.1963    4.1010    0.0000 C   0  0  0  0  0  0  0  0  0  0  0  0
    1.2567    5.1619    0.0000 C   0  0  0  0  0  0  0  0  0  0  0  0
    2.7565    5.1361    0.0000 O   0  0  0  0  0  0  0  0  0  0  0  0
    0.8682    6.6107    0.0000 C   0  0  0  0  0  0  0  0  0  0  0  0
    1.9286    7.6716    0.0000 C   0  0  0  0  0  0  0  0  0  0  0  0
    1.5401    9.1204    0.0000 O   0  0  0  0  0  0  0  0  0  0  0  0
    2.6005   10.1813    0.0000 C   0  0  0  0  0  0  0  0  0  0  0  0
    2.2120   11.6301    0.0000 C   0  0  0  0  0  0  0  0  0  0  0  0
    4.0495    9.7934    0.0000 O   0  0  0  0  0  0  0  0  0  0  0  0
   -0.5808    6.9986    0.0000 O   0  0  0  0  0  0  0  0  0  0  0  0
   -7.1460    6.6949    0.0000 O   0  0  0  0  0  0  0  0  0  0  0  0
   -6.9199    8.1777    0.0000 C   0  0  0  0  0  0  0  0  0  0  0  0
   -8.0910    9.1150    0.0000 C   0  0  0  0  0  0  0  0  0  0  0  0
   -5.5226    8.7233    0.0000 C   0  0  0  0  0  0  0  0  0  0  0  0
   -5.2964   10.2061    0.0000 O   0  0  0  0  0  0  0  0  0  0  0  0
   -4.3515    7.7860    0.0000 C   0  0  0  0  0  0  0  0  0  0  0  0
   -2.9542    8.3315    0.0000 O   0  0  0  0  0  0  0  0  0  0  0  0
   -2.9850    0.9184    0.0000 O   0  0  0  0  0  0  0  0  0  0  0  0
   -2.5965   -0.5304    0.0000 C   0  0  0  0  0  0  0  0  0  0  0  0
   -3.7784   -1.4542    0.0000 C   0  0  0  0  0  0  0  0  0  0  0  0
    1.7504   -1.6942    0.0000 C   0  0  0  0  0  0  0  0  0  0  0  0
    1.7240   -0.1944    0.0000 O   0  0  0  0  0  0  0  0  0  0  0  0
  1  2  1  0
  2  3  1  0
  3  4  1  0
  4  5  1  0
  5  6  1  0
  6  7  1  0
  7  8  1  0
  8  9  1  0
  9 10  1  0
 10 11  1  0
 11 12  1  0
 12 13  2  0
 12 14  1  0
 15 14  1  1
 15 16  1  0
 16 17  1  1
 16 18  1  0
 18 19  1  1
 18 20  1  0
 20 21  1  0
 21 22  1  1
 23 22  1  1
 23 24  1  0
 24 25  1  6
 26 25  1  6
 26 27  1  0
 27 28  1  0
 28 29  1  6
 29 30  1  0
 28 31  1  0
 31 32  1  1
 31 33  1  0
 33 34  1  6
 33 35  1  0
 35 36  1  1
 37 36  1  6
 37 38  1  0
 38 39  1  0
 39 40  1  6
 39 41  1  0
 41 42  1  1
 41 43  1  0
 43 44  1  6
 44 45  1  0
 45 46  2  0
 45 47  1  0
 47 48  1  1
 47 49  1  0
 49 50  1  0
 43 51  1  0
 51 52  1  1
 24 53  1  0
 53 54  1  6
 54 55  1  0
 55 56  2  0
 55 57  1  0
 57 58  1  6
 57 59  1  0
 59 60  1  0
 53 61  1  0
 61 62  1  1
 63 62  1  1
 63 64  1  0
 64 65  1  6
 66 65  1  1
 66 67  1  0
 67 68  1  6
 68 69  1  0
 69 70  1  6
 70 71  1  0
 71 72  1  0
 69 73  1  0
 73 74  1  0
 74 75  1  0
 75 76  1  0
 76 77  1  0
 77 78  1  0
 78 79  1  0
 79 80  1  0
 80 81  1  1
 82 81  1  6
 82 83  1  0
 83 84  1  0
 84 85  1  6
 84 86  1  0
 86 87  1  1
 86 88  1  0
 88 89  1  6
 88 90  1  0
 90 91  1  1
 80 92  1  0
 92 93  1  0
 93 94  2  0
 93 95  1  0
 96 95  1  6
 96 97  1  0
 97 98  1  1
 97 99  1  0
 99100  1  6
100101  1  0
101102  1  0
102103  1  0
102104  2  0
 99105  1  0
 67106  1  0
106107  1  0
107108  1  6
107109  1  0
109110  1  1
109111  1  0
111112  1  6
 61113  1  0
113114  1  0
114115  1  6
 21116  1  0
116117  1  6
116 15  1  0
114 23  1  0
 35 26  1  0
 51 37  1  0
 96 63  1  0
105 64  1  0
111 66  1  0
 90 82  1  0
M  END
>  <identifier>  (567) 
CNP0225435.1

>  <canonical_smiles>  (567) 
CCCCCCCCCCCC(=O)O[C@H]1[C@@H](O)[C@@H](C)O[C@@H](O[C@@H]2[C@@H](O[C@@H]3O[C@H](CO)[C@@H](O)[C@H](O)[C@H]3O[C@@H]3O[C@H](C)[C@@H](O)[C@H](OC(=O)[C@@H](C)CC)[C@H]3O)[C@@H](OC(=O)[C@@H](C)CC)[C@H](O[C@H]3[C@@H]4O[C@H]5[C@H](O[C@@H](CCC)CCCCCCC[C@H](O[C@H]6O[C@@H](C)[C@H](O)[C@@H](O)[C@@H]6O)CC(=O)O[C@H]3[C@H](O)[C@@H](COC(C)=O)O4)O[C@H](C)[C@@H](O)[C@@H]5O)O[C@H]2C)[C@@H]1O

>  <standard_inchi>  (567) 
InChI=1S/C80H136O37/c1-13-17-18-19-20-21-22-26-29-33-49(83)109-64-53(87)41(9)101-75(61(64)95)113-63-43(11)104-79(71(112-73(98)38(6)16-4)69(63)116-78-68(59(93)55(89)47(35-81)107-78)114-76-62(96)65(54(88)42(10)102-76)111-72(97)37(5)15-3)117-70-66-56(90)48(36-99-44(12)82)108-80(70)115-67-58(92)52(86)40(8)103-77(67)105-45(30-14-2)31-27-24-23-25-28-32-46(34-50(84)110-66)106-74-60(94)57(91)51(85)39(7)100-74/h37-43,45-48,51-71,74-81,85-96H,13-36H2,1-12H3/t37-,38-,39-,40+,41+,42+,43-,45-,46-,47+,48+,51-,52+,53-,54+,55+,56+,57+,58-,59-,60-,61+,62+,63-,64-,65-,66-,67+,68+,69+,70+,71+,74+,75-,76-,77-,78-,79-,80-/m0/s1

>  <standard_inchi_key>  (567) 
QHWDTDHKZFTJKU-PYOFXGKSSA-N

>  <name>  (567) 
nan

>  <iupac_name>  (567) 
[(2~{S},3~{R},4~{S},5~{S},6~{R})-2-[(2~{S},3~{S},4~{R},5~{R},6~{S})-6-[[(1~{S},3~{R},4~{S},5~{S},6~{R},8~{R},10~{S},18~{S},22~{S},23~{R},24~{R},26~{R})-24-(acetoxymethyl)-4,5,23-trihydroxy-6-methyl-20-oxo-10-propyl-18-[(2~{S},3~{S},4~{R},5~{R},6~{S})-3,4,5-trihydroxy-6-methyl-tetrahydropyran-2-yl]oxy-2,7,9,21,25-pentaoxatricyclo[20.3.1.0^{3,8}]hexacosan-26-yl]oxy]-4-[(2~{S},3~{R},4~{S},5~{S},6~{R})-3-[(2~{S},3~{R},4~{S},5~{R},6~{R})-3,5-dihydroxy-6-methyl-4-[(2~{S})-2-methylbutanoyl]oxy-tetrahydropyran-2-yl]oxy-4,5-dihydroxy-6-(hydroxymethyl)tetrahydropyran-2-yl]oxy-2-methyl-5-[(2~{S})-2-methylbutanoyl]oxy-tetrahydropyran-3-yl]oxy-3,5-dihydroxy-6-methyl-tetrahydropyran-4-yl] dodecanoate

>  <annotation_level>  (567) 
5

>  <total_atom_count>  (567) 
253

>  <heavy_atom_count>  (567) 
117

>  <molecular_weight>  (567) 
1689.93

>  <exact_molecular_weight>  (567) 
1688.87605

>  <molecular_formula>  (567) 
C80H136O37

>  <alogp>  (567) 
1.34

>  <topological_polar_surface_area>  (567) 
523.71

>  <rotatable_bond_count>  (567) 
32

>  <hydrogen_bond_acceptors>  (567) 
37

>  <hydrogen_bond_donors>  (567) 
13

>  <hydrogen_bond_acceptors_lipinski>  (567) 
37

>  <hydrogen_bond_donors_lipinski>  (567) 
13

>  <lipinski_rule_of_five_violations>  (567) 
3

>  <aromatic_rings_count>  (567) 
0

>  <qed_drug_likeliness>  (567) 
0.03

>  <formal_charge>  (567) 
0

>  <fractioncsp3>  (567) 
0.94

>  <number_of_minimal_rings>  (567) 
8

>  <van_der_walls_volume>  (567) 
nan

>  <contains_sugar>  (567) 
True

>  <contains_ring_sugars>  (567) 
True

>  <contains_linear_sugars>  (567) 
False

>  <murcko_framework>  (567) 
O1CCCCC1OC2CCOC3CCOC(OC4CCCOC4OCCCCCCCC2)C3OC5OCC(OC6OCCCC6)C(OC7OCCCC7OC8OCCCC8)C5

>  <np_likeness>  (567) 
1.20

>  <chemical_class>  (567) 
Carboxylic acids and derivatives

>  <chemical_sub_class>  (567) 
Pentacarboxylic acids and derivatives

>  <chemical_super_class>  (567) 
Organic acids and derivatives

>  <direct_parent_classification>  (567) 
Pentacarboxylic acids and derivatives

>  <np_classifier_pathway>  (567) 
Fatty acids

>  <np_classifier_superclass>  (567) 
Fatty acyls

>  <np_classifier_class>  (567) 
Resin glycosides

>  <np_classifier_is_glycoside>  (567) 
True

>  <organisms>  (567) 
Ipomea purga

>  <collections>  (567) 
BIOFACQUIM|Latin America dataset

>  <dois>  (567) 
10.1021/np500762w

>  <synonyms>  (567) 
Jalapinoside

>  <cas>  (567) 
nan

$$$$

     RDKit          2D

172182  0  0  0  0  0  0  0  0999 V2000
  -29.9708    2.9539    0.0000 C   0  0  0  0  0  0  0  0  0  0  0  0
  -28.7374    2.1003    0.0000 C   0  0  0  0  0  0  0  0  0  0  0  0
  -27.3814    2.7416    0.0000 C   0  0  0  0  0  0  0  0  0  0  0  0
  -26.1480    1.8880    0.0000 C   0  0  0  0  0  0  0  0  0  0  0  0
  -24.7921    2.5293    0.0000 C   0  0  0  0  0  0  0  0  0  0  0  0
  -23.5586    1.6757    0.0000 C   0  0  0  0  0  0  0  0  0  0  0  0
  -22.2027    2.3170    0.0000 C   0  0  0  0  0  0  0  0  0  0  0  0
  -20.9693    1.4634    0.0000 C   0  0  0  0  0  0  0  0  0  0  0  0
  -19.6133    2.1047    0.0000 C   0  0  0  0  0  0  0  0  0  0  0  0
  -18.3799    1.2511    0.0000 C   0  0  0  0  0  0  0  0  0  0  0  0
  -17.0239    1.8924    0.0000 C   0  0  0  0  0  0  0  0  0  0  0  0
  -15.7905    1.0388    0.0000 C   0  0  0  0  0  0  0  0  0  0  0  0
  -16.2712   -0.3821    0.0000 O   0  0  0  0  0  0  0  0  0  0  0  0
  -14.4345    1.6801    0.0000 O   0  0  0  0  0  0  0  0  0  0  0  0
  -13.2011    0.8264    0.0000 C   0  0  0  0  0  0  0  0  0  0  0  0
  -11.8451    1.4678    0.0000 C   0  0  0  0  0  0  0  0  0  0  0  0
  -11.7225    2.9628    0.0000 O   0  0  0  0  0  0  0  0  0  0  0  0
  -10.3666    3.6041    0.0000 C   0  0  0  0  0  0  0  0  0  0  0  0
   -9.1332    2.7505    0.0000 C   0  0  0  0  0  0  0  0  0  0  0  0
   -9.2557    1.2555    0.0000 O   0  0  0  0  0  0  0  0  0  0  0  0
   -7.7772    3.3918    0.0000 C   0  0  0  0  0  0  0  0  0  0  0  0
   -6.5438    2.5381    0.0000 O   0  0  0  0  0  0  0  0  0  0  0  0
   -7.6546    4.8868    0.0000 C   0  0  0  0  0  0  0  0  0  0  0  0
   -6.2986    5.5281    0.0000 O   0  0  0  0  0  0  0  0  0  0  0  0
   -6.1760    7.0231    0.0000 C   0  0  0  0  0  0  0  0  0  0  0  0
   -4.8201    7.6644    0.0000 C   0  0  0  0  0  0  0  0  0  0  0  0
   -3.5867    6.8108    0.0000 O   0  0  0  0  0  0  0  0  0  0  0  0
   -3.7092    5.3158    0.0000 C   0  0  0  0  0  0  0  0  0  0  0  0
   -5.0652    4.6745    0.0000 C   0  0  0  0  0  0  0  0  0  0  0  0
   -5.1878    3.1795    0.0000 C   0  0  0  0  0  0  0  0  0  0  0  0
   -3.9544    2.3258    0.0000 C   0  0  0  0  0  0  0  0  0  0  0  0
   -4.0770    0.8309    0.0000 C   0  0  0  0  0  0  0  0  0  0  0  0
   -2.9568   -0.1668    0.0000 C   0  0  0  0  0  0  0  0  0  0  0  0
   -2.4758    4.4622    0.0000 C   0  0  0  0  0  0  0  0  0  0  0  0
   -1.1198    5.1035    0.0000 C   0  0  0  0  0  0  0  0  0  0  0  0
    0.1136    4.2499    0.0000 C   0  0  0  0  0  0  0  0  0  0  0  0
    1.4695    4.8912    0.0000 C   0  0  0  0  0  0  0  0  0  0  0  0
    2.7030    4.0375    0.0000 C   0  0  0  0  0  0  0  0  0  0  0  0
    4.0589    4.6789    0.0000 C   0  0  0  0  0  0  0  0  0  0  0  0
    5.2923    3.8252    0.0000 C   0  0  0  0  0  0  0  0  0  0  0  0
    6.6483    4.4666    0.0000 C   0  0  0  0  0  0  0  0  0  0  0  0
    7.8817    3.6129    0.0000 C   0  0  0  0  0  0  0  0  0  0  0  0
    9.2377    4.2543    0.0000 C   0  0  0  0  0  0  0  0  0  0  0  0
    9.3603    5.7492    0.0000 O   0  0  0  0  0  0  0  0  0  0  0  0
   10.4711    3.4006    0.0000 O   0  0  0  0  0  0  0  0  0  0  0  0
   11.8271    4.0420    0.0000 C   0  0  0  0  0  0  0  0  0  0  0  0
   13.0605    3.1883    0.0000 C   0  0  0  0  0  0  0  0  0  0  0  0
   12.9379    1.6933    0.0000 O   0  0  0  0  0  0  0  0  0  0  0  0
   14.1713    0.8397    0.0000 C   0  0  0  0  0  0  0  0  0  0  0  0
   15.5273    1.4810    0.0000 C   0  0  0  0  0  0  0  0  0  0  0  0
   15.6499    2.9760    0.0000 O   0  0  0  0  0  0  0  0  0  0  0  0
   17.0059    3.6173    0.0000 C   0  0  0  0  0  0  0  0  0  0  0  0
   17.1284    5.1123    0.0000 O   0  0  0  0  0  0  0  0  0  0  0  0
   18.4844    5.7537    0.0000 C   0  0  0  0  0  0  0  0  0  0  0  0
   18.6070    7.2486    0.0000 C   0  0  0  0  0  0  0  0  0  0  0  0
   19.7178    4.9000    0.0000 C   0  0  0  0  0  0  0  0  0  0  0  0
   21.0738    5.5413    0.0000 O   0  0  0  0  0  0  0  0  0  0  0  0
   22.3072    4.6877    0.0000 C   0  0  0  0  0  0  0  0  0  0  0  0
   22.1846    3.1927    0.0000 O   0  0  0  0  0  0  0  0  0  0  0  0
   23.6632    5.3290    0.0000 C   0  0  0  0  0  0  0  0  0  0  0  0
   24.8966    4.4754    0.0000 C   0  0  0  0  0  0  0  0  0  0  0  0
   23.7858    6.8240    0.0000 C   0  0  0  0  0  0  0  0  0  0  0  0
   19.5953    3.4050    0.0000 C   0  0  0  0  0  0  0  0  0  0  0  0
   20.8287    2.5514    0.0000 O   0  0  0  0  0  0  0  0  0  0  0  0
   18.2393    2.7637    0.0000 C   0  0  0  0  0  0  0  0  0  0  0  0
   18.2834    1.6711    0.0000 O   0  0  0  0  0  0  0  0  0  0  0  0
   16.7607    0.6274    0.0000 C   0  0  0  0  0  0  0  0  0  0  0  0
   17.7988    0.9709    0.0000 C   0  0  0  0  0  0  0  0  0  0  0  0
   16.6381   -0.8676    0.0000 O   0  0  0  0  0  0  0  0  0  0  0  0
   15.2822   -1.5090    0.0000 C   0  0  0  0  0  0  0  0  0  0  0  0
   15.1596   -3.0039    0.0000 O   0  0  0  0  0  0  0  0  0  0  0  0
   13.8036   -3.6453    0.0000 C   0  0  0  0  0  0  0  0  0  0  0  0
   13.6810   -5.1403    0.0000 C   0  0  0  0  0  0  0  0  0  0  0  0
   14.9144   -5.9939    0.0000 O   0  0  0  0  0  0  0  0  0  0  0  0
   12.3250   -5.7816    0.0000 C   0  0  0  0  0  0  0  0  0  0  0  0
   13.1921   -7.0056    0.0000 O   0  0  0  0  0  0  0  0  0  0  0  0
   13.5882   -8.4524    0.0000 C   0  0  0  0  0  0  0  0  0  0  0  0
   15.0818   -8.3135    0.0000 O   0  0  0  0  0  0  0  0  0  0  0  0
   13.4657   -9.9473    0.0000 C   0  0  0  0  0  0  0  0  0  0  0  0
   12.8392  -11.3102    0.0000 C   0  0  0  0  0  0  0  0  0  0  0  0
   11.7843  -12.3767    0.0000 C   0  0  0  0  0  0  0  0  0  0  0  0
   10.4283  -13.0180    0.0000 C   0  0  0  0  0  0  0  0  0  0  0  0
    8.9348  -13.1569    0.0000 C   0  0  0  0  0  0  0  0  0  0  0  0
    7.4838  -12.7766    0.0000 C   0  0  0  0  0  0  0  0  0  0  0  0
    6.2504  -11.9229    0.0000 C   0  0  0  0  0  0  0  0  0  0  0  0
    5.3833  -10.6989    0.0000 C   0  0  0  0  0  0  0  0  0  0  0  0
    4.9872   -9.2522    0.0000 C   0  0  0  0  0  0  0  0  0  0  0  0
    5.1098   -7.7572    0.0000 C   0  0  0  0  0  0  0  0  0  0  0  0
    3.6588   -7.3769    0.0000 C   0  0  0  0  0  0  0  0  0  0  0  0
    2.6039   -8.4433    0.0000 C   0  0  0  0  0  0  0  0  0  0  0  0
    1.1529   -8.0630    0.0000 C   0  0  0  0  0  0  0  0  0  0  0  0
    0.0981   -9.1294    0.0000 C   0  0  0  0  0  0  0  0  0  0  0  0
   -1.3529   -8.7491    0.0000 C   0  0  0  0  0  0  0  0  0  0  0  0
    5.7363   -6.3943    0.0000 O   0  0  0  0  0  0  0  0  0  0  0  0
    6.7911   -5.3279    0.0000 C   0  0  0  0  0  0  0  0  0  0  0  0
    5.5577   -4.4742    0.0000 O   0  0  0  0  0  0  0  0  0  0  0  0
    5.6803   -2.9792    0.0000 C   0  0  0  0  0  0  0  0  0  0  0  0
    4.4469   -2.1256    0.0000 C   0  0  0  0  0  0  0  0  0  0  0  0
    7.0363   -2.3379    0.0000 C   0  0  0  0  0  0  0  0  0  0  0  0
    6.7935   -0.8577    0.0000 O   0  0  0  0  0  0  0  0  0  0  0  0
    8.2697   -3.1915    0.0000 C   0  0  0  0  0  0  0  0  0  0  0  0
    9.6257   -2.5502    0.0000 O   0  0  0  0  0  0  0  0  0  0  0  0
    8.1471   -4.6865    0.0000 C   0  0  0  0  0  0  0  0  0  0  0  0
    9.6406   -4.5476    0.0000 O   0  0  0  0  0  0  0  0  0  0  0  0
   11.0916   -4.9279    0.0000 C   0  0  0  0  0  0  0  0  0  0  0  0
   11.2142   -3.4330    0.0000 O   0  0  0  0  0  0  0  0  0  0  0  0
   12.5702   -2.7916    0.0000 C   0  0  0  0  0  0  0  0  0  0  0  0
   12.4412   -2.0050    0.0000 C   0  0  0  0  0  0  0  0  0  0  0  0
   14.0488   -0.6553    0.0000 C   0  0  0  0  0  0  0  0  0  0  0  0
   12.6928   -1.2966    0.0000 O   0  0  0  0  0  0  0  0  0  0  0  0
   11.4594   -0.4430    0.0000 C   0  0  0  0  0  0  0  0  0  0  0  0
   11.5819    1.0520    0.0000 O   0  0  0  0  0  0  0  0  0  0  0  0
   10.1034   -1.0843    0.0000 C   0  0  0  0  0  0  0  0  0  0  0  0
    8.8700   -0.2307    0.0000 C   0  0  0  0  0  0  0  0  0  0  0  0
    7.5140   -0.8720    0.0000 C   0  0  0  0  0  0  0  0  0  0  0  0
    6.2806   -0.0184    0.0000 C   0  0  0  0  0  0  0  0  0  0  0  0
    4.9246   -0.6597    0.0000 C   0  0  0  0  0  0  0  0  0  0  0  0
    3.6912    0.1939    0.0000 C   0  0  0  0  0  0  0  0  0  0  0  0
    2.3352   -0.4474    0.0000 C   0  0  0  0  0  0  0  0  0  0  0  0
    1.1018    0.4062    0.0000 C   0  0  0  0  0  0  0  0  0  0  0  0
   -0.2542   -0.2351    0.0000 C   0  0  0  0  0  0  0  0  0  0  0  0
   -1.4876    0.6185    0.0000 C   0  0  0  0  0  0  0  0  0  0  0  0
   -2.7553   -0.1833    0.0000 C   0  0  0  0  0  0  0  0  0  0  0  0
   14.4165    3.8296    0.0000 O   0  0  0  0  0  0  0  0  0  0  0  0
   14.5391    5.3246    0.0000 C   0  0  0  0  0  0  0  0  0  0  0  0
   15.8950    5.9660    0.0000 C   0  0  0  0  0  0  0  0  0  0  0  0
   13.3057    6.1783    0.0000 C   0  0  0  0  0  0  0  0  0  0  0  0
   13.4282    7.6733    0.0000 O   0  0  0  0  0  0  0  0  0  0  0  0
   11.9497    5.5369    0.0000 C   0  0  0  0  0  0  0  0  0  0  0  0
   10.7163    6.3906    0.0000 O   0  0  0  0  0  0  0  0  0  0  0  0
   -4.6975    9.1594    0.0000 O   0  0  0  0  0  0  0  0  0  0  0  0
   -5.9309   10.0131    0.0000 C   0  0  0  0  0  0  0  0  0  0  0  0
   -5.8083   11.5080    0.0000 C   0  0  0  0  0  0  0  0  0  0  0  0
   -7.2869    9.3717    0.0000 C   0  0  0  0  0  0  0  0  0  0  0  0
   -8.5203   10.2254    0.0000 O   0  0  0  0  0  0  0  0  0  0  0  0
   -7.4094    7.8767    0.0000 C   0  0  0  0  0  0  0  0  0  0  0  0
   -8.7654    7.2354    0.0000 O   0  0  0  0  0  0  0  0  0  0  0  0
   -8.8880    5.7404    0.0000 O   0  0  0  0  0  0  0  0  0  0  0  0
  -10.2440    5.0991    0.0000 C   0  0  0  0  0  0  0  0  0  0  0  0
  -11.4774    5.9527    0.0000 C   0  0  0  0  0  0  0  0  0  0  0  0
  -10.6117    0.6141    0.0000 O   0  0  0  0  0  0  0  0  0  0  0  0
  -10.7343   -0.8808    0.0000 C   0  0  0  0  0  0  0  0  0  0  0  0
   -9.5009   -1.7345    0.0000 C   0  0  0  0  0  0  0  0  0  0  0  0
  -12.0903   -1.5222    0.0000 C   0  0  0  0  0  0  0  0  0  0  0  0
  -12.2128   -3.0172    0.0000 O   0  0  0  0  0  0  0  0  0  0  0  0
  -13.5688   -3.6585    0.0000 C   0  0  0  0  0  0  0  0  0  0  0  0
  -14.8022   -2.8049    0.0000 O   0  0  0  0  0  0  0  0  0  0  0  0
  -16.1582   -3.4462    0.0000 C   0  0  0  0  0  0  0  0  0  0  0  0
  -17.4865   -2.7493    0.0000 C   0  0  0  0  0  0  0  0  0  0  0  0
  -16.2808   -4.9412    0.0000 C   0  0  0  0  0  0  0  0  0  0  0  0
  -17.6368   -5.5825    0.0000 O   0  0  0  0  0  0  0  0  0  0  0  0
  -17.7594   -7.0775    0.0000 C   0  0  0  0  0  0  0  0  0  0  0  0
  -16.5259   -7.9311    0.0000 O   0  0  0  0  0  0  0  0  0  0  0  0
  -19.1153   -7.7188    0.0000 C   0  0  0  0  0  0  0  0  0  0  0  0
  -19.2379   -9.2138    0.0000 C   0  0  0  0  0  0  0  0  0  0  0  0
  -20.3487   -6.8652    0.0000 C   0  0  0  0  0  0  0  0  0  0  0  0
  -15.0474   -5.7948    0.0000 C   0  0  0  0  0  0  0  0  0  0  0  0
  -15.1700   -7.2898    0.0000 O   0  0  0  0  0  0  0  0  0  0  0  0
  -13.6914   -5.1535    0.0000 C   0  0  0  0  0  0  0  0  0  0  0  0
  -12.4580   -6.0071    0.0000 O   0  0  0  0  0  0  0  0  0  0  0  0
  -13.3237   -0.6685    0.0000 C   0  0  0  0  0  0  0  0  0  0  0  0
  -14.6797   -1.3099    0.0000 O   0  0  0  0  0  0  0  0  0  0  0  0
  -15.9131   -0.4562    0.0000 C   0  0  0  0  0  0  0  0  0  0  0  0
  -15.7905    1.0388    0.0000 O   0  0  0  0  0  0  0  0  0  0  0  0
  -17.0239    1.8924    0.0000 C   0  0  0  0  0  0  0  0  0  0  0  0
  -16.9013    3.3874    0.0000 C   0  0  0  0  0  0  0  0  0  0  0  0
  -18.3799    1.2511    0.0000 C   0  0  0  0  0  0  0  0  0  0  0  0
  -19.7832    1.7809    0.0000 O   0  0  0  0  0  0  0  0  0  0  0  0
  -18.5025   -0.2439    0.0000 C   0  0  0  0  0  0  0  0  0  0  0  0
  -19.8584   -0.8853    0.0000 O   0  0  0  0  0  0  0  0  0  0  0  0
  -17.2690   -1.0976    0.0000 C   0  0  0  0  0  0  0  0  0  0  0  0
  -17.5729   -2.5665    0.0000 O   0  0  0  0  0  0  0  0  0  0  0  0
  1  2  1  0
  2  3  1  0
  3  4  1  0
  4  5  1  0
  5  6  1  0
  6  7  1  0
  7  8  1  0
  8  9  1  0
  9 10  1  0
 10 11  1  0
 11 12  1  0
 12 13  2  0
 12 14  1  0
 15 14  1  1
 15 16  1  0
 16 17  1  6
 18 17  1  1
 18 19  1  0
 19 20  1  6
 19 21  1  0
 21 22  1  6
 21 23  1  0
 23 24  1  1
 25 24  1  6
 25 26  1  0
 26 27  1  1
 27 28  1  0
 28 29  1  6
 29 30  1  0
 30 31  1  0
 31 32  1  0
 32 33  1  0
 28 34  1  0
 34 35  1  0
 35 36  1  0
 36 37  1  0
 37 38  1  0
 38 39  1  0
 39 40  1  0
 40 41  1  0
 41 42  1  0
 42 43  1  0
 43 44  2  0
 43 45  1  0
 46 45  1  6
 46 47  1  0
 47 48  1  1
 49 48  1  6
 49 50  1  0
 50 51  1  1
 52 51  1  6
 52 53  1  0
 53 54  1  0
 54 55  1  1
 54 56  1  0
 56 57  1  1
 57 58  1  0
 58 59  2  0
 58 60  1  0
 60 61  1  0
 60 62  1  0
 56 63  1  0
 63 64  1  1
 63 65  1  0
 65 66  1  1
 50 67  1  0
 67 68  1  6
 67 69  1  0
 69 70  1  0
 70 71  1  1
 72 71  1  6
 72 73  1  0
 73 74  1  1
 73 75  1  0
 75 76  1  1
 76 77  1  0
 77 78  2  0
 77 79  1  0
 79 80  1  0
 80 81  1  0
 81 82  1  0
 82 83  1  0
 83 84  1  0
 84 85  1  0
 85 86  1  0
 86 87  1  0
 87 88  1  0
 88 89  1  6
 89 90  1  0
 90 91  1  0
 91 92  1  0
 92 93  1  0
 88 94  1  0
 95 94  1  6
 95 96  1  0
 96 97  1  0
 97 98  1  6
 97 99  1  0
 99100  1  6
 99101  1  0
101102  1  6
101103  1  0
103104  1  1
105104  1  6
105106  1  0
106107  1  0
107108  1  1
 70109  1  0
109110  1  6
110111  1  0
111112  2  0
111113  1  0
113114  1  0
114115  1  0
115116  1  0
116117  1  0
117118  1  0
118119  1  0
119120  1  0
120121  1  0
121122  1  0
122123  1  0
 47124  1  0
124125  1  0
125126  1  6
125127  1  0
127128  1  1
127129  1  0
129130  1  6
 26131  1  0
131132  1  0
132133  1  1
132134  1  0
134135  1  1
134136  1  0
136137  1  1
 23138  1  0
138139  1  0
139140  1  6
 16141  1  0
141142  1  0
142143  1  1
142144  1  0
144145  1  6
146145  1  1
146147  1  0
147148  1  0
148149  1  6
148150  1  0
150151  1  1
151152  1  0
152153  2  0
152154  1  0
154155  1  0
154156  1  0
150157  1  0
157158  1  6
157159  1  0
159160  1  6
144161  1  0
161162  1  1
163162  1  1
163164  1  0
164165  1  0
165166  1  6
165167  1  0
167168  1  1
167169  1  0
169170  1  6
169171  1  0
171172  1  6
161 15  1  0
171163  1  0
139 18  1  0
159146  1  0
136 25  1  0
129 46  1  0
109 49  1  0
 65 52  1  0
107 72  1  0
105 75  1  0
103 95  1  0
M  END
>  <identifier>  (568) 
CNP0436831.1

>  <canonical_smiles>  (568) 
CCCCCCCCCCCC(=O)O[C@H]1[C@H](O[C@@H]2[C@@H](O)[C@@H](O)[C@H](O[C@H]3[C@H](O[C@@H](CCCCC)CCCCCCCCCC(=O)O[C@H]4[C@H](O[C@@H]5[C@@H](O[C@@H]6O[C@@H](C)[C@@H](OC(=O)C(C)C)[C@@H](O)[C@H]6O)[C@H](C)O[C@@H](O[C@@H]6[C@@H](O)[C@H]7OC(=O)CCCCCCCCC[C@H](CCCCC)O[C@@H]8O[C@H](C)[C@H](O)[C@H](O)[C@H]8O[C@@H]7O[C@H]6C)[C@@H]5OC(=O)CCCCCCCCCCC)O[C@@H](C)[C@H](O)[C@H]4O)O[C@H](C)[C@H](O)[C@@H]3O)O[C@H]2C)O[C@@H](C)[C@H](O[C@@H]2O[C@@H](C)[C@H](OC(=O)C(C)C)[C@@H](O)[C@H]2O)[C@H]1O[C@@H]1O[C@@H](C)[C@H](O)[C@@H](O)[C@H]1O

>  <standard_inchi>  (568) 
InChI=1S/C124H216O48/c1-19-23-27-29-31-33-39-45-55-63-81(127)161-111-109(171-115-94(140)87(133)83(129)67(9)147-115)103(167-116-95(141)91(137)99(71(13)151-116)163-113(145)65(5)6)75(17)155-123(111)165-101-73(15)153-118(97(143)93(101)139)169-106-89(135)85(131)68(10)148-119(106)157-77(57-49-25-21-3)59-51-43-37-35-41-47-53-61-79(125)159-105-88(134)84(130)70(12)150-121(105)172-110-104(168-117-96(142)92(138)100(72(14)152-117)164-114(146)66(7)8)76(18)156-124(112(110)162-82(128)64-56-46-40-34-32-30-28-24-20-2)166-102-74(16)154-122-108(98(102)144)160-80(126)62-54-48-42-36-38-44-52-60-78(58-50-26-22-4)158-120-107(170-122)90(136)86(132)69(11)149-120/h65-78,83-112,115-124,129-144H,19-64H2,1-18H3/t67-,68+,69+,70-,71-,72-,73-,74-,75-,76-,77-,78-,83-,84-,85-,86-,87+,88+,89-,90-,91-,92-,93-,94+,95+,96+,97+,98+,99-,100+,101-,102-,103-,104-,105+,106+,107+,108+,109+,110+,111+,112+,115-,116-,117-,118-,119-,120-,121-,122-,123-,124-/m0/s1

>  <standard_inchi_key>  (568) 
KDCVGYXLCAUWRO-RVUKAOIVSA-N

>  <name>  (568) 
nan

>  <iupac_name>  (568) 
[(2~{S},3~{R},4~{R},5~{R},6~{S})-2-[(2~{S},3~{S},4~{R},5~{R},6~{S})-3-[(2~{S},3~{R},4~{S},5~{S},6~{S})-3,4-dihydroxy-6-methyl-5-(2-methylpropanoyloxy)tetrahydropyran-2-yl]oxy-5-dodecanoyloxy-2-methyl-6-[[(1~{R},3~{S},5~{S},6~{R},7~{R},8~{R},20~{S},22~{R},24~{R},25~{R},26~{S})-7,25,26-trihydroxy-5,24-dimethyl-10-oxo-20-pentyl-2,4,9,21,23-pentaoxatricyclo[20.4.0.0^{3,8}]hexacosan-6-yl]oxy]tetrahydropyran-4-yl]oxy-4,5-dihydroxy-6-methyl-tetrahydropyran-3-yl] (11~{S})-11-[(2~{R},3~{R},4~{S},5~{R},6~{R})-3-[(2~{S},3~{R},4~{S},5~{R},6~{S})-5-[(2~{S},3~{R},4~{R},5~{S},6~{S})-5-[(2~{S},3~{R},4~{S},5~{R},6~{S})-3,4-dihydroxy-6-methyl-5-(2-methylpropanoyloxy)tetrahydropyran-2-yl]oxy-3-dodecanoyloxy-6-methyl-4-[(2~{S},3~{R},4~{R},5~{R},6~{S})-3,4,5-trihydroxy-6-methyl-tetrahydropyran-2-yl]oxy-tetrahydropyran-2-yl]oxy-3,4-dihydroxy-6-methyl-tetrahydropyran-2-yl]oxy-4,5-dihydroxy-6-methyl-tetrahydropyran-2-yl]oxyhexadecanoate

>  <annotation_level>  (568) 
5

>  <total_atom_count>  (568) 
388

>  <heavy_atom_count>  (568) 
172

>  <molecular_weight>  (568) 
2475.04

>  <exact_molecular_weight>  (568) 
2473.44611

>  <molecular_formula>  (568) 
C124H216O48

>  <alogp>  (568) 
9.88

>  <topological_polar_surface_area>  (568) 
666.08

>  <rotatable_bond_count>  (568) 
61

>  <hydrogen_bond_acceptors>  (568) 
48

>  <hydrogen_bond_donors>  (568) 
16

>  <hydrogen_bond_acceptors_lipinski>  (568) 
48

>  <hydrogen_bond_donors_lipinski>  (568) 
16

>  <lipinski_rule_of_five_violations>  (568) 
4

>  <aromatic_rings_count>  (568) 
0

>  <qed_drug_likeliness>  (568) 
0.02

>  <formal_charge>  (568) 
0

>  <fractioncsp3>  (568) 
0.95

>  <number_of_minimal_rings>  (568) 
11

>  <van_der_walls_volume>  (568) 
nan

>  <contains_sugar>  (568) 
True

>  <contains_ring_sugars>  (568) 
True

>  <contains_linear_sugars>  (568) 
False

>  <murcko_framework>  (568) 
O1CCCCC1OC2COC(OC3COC(OC4CCCOC4OCCCCCCCCCCCOC5CCCOC5OC6CC(OCC6OC7OCCCC7)OC8COC9OC%10CCCOC%10OCCCCCCCCCCCOC9C8)CC3)CC2OC%11OCCCC%11

>  <np_likeness>  (568) 
0.70

>  <chemical_class>  (568) 
Carboxylic acids and derivatives

>  <chemical_sub_class>  (568) 
Hexacarboxylic acids and derivatives

>  <chemical_super_class>  (568) 
Organic acids and derivatives

>  <direct_parent_classification>  (568) 
Hexacarboxylic acids and derivatives

>  <np_classifier_pathway>  (568) 
Fatty acids

>  <np_classifier_superclass>  (568) 
Fatty acyls

>  <np_classifier_class>  (568) 
Resin glycosides

>  <np_classifier_is_glycoside>  (568) 
True

>  <organisms>  (568) 
Ipomoea batatas

>  <collections>  (568) 
BIOFACQUIM|Latin America dataset

>  <dois>  (568) 
10.1021/np500523w

>  <synonyms>  (568) 
Batatin VIII

>  <cas>  (568) 
nan

$$$$

     RDKit          2D

170180  0  0  0  0  0  0  0  0999 V2000
   31.2923   -4.3203    0.0000 C   0  0  0  0  0  0  0  0  0  0  0  0
   30.2446   -3.2469    0.0000 C   0  0  0  0  0  0  0  0  0  0  0  0
   28.7911   -3.6177    0.0000 C   0  0  0  0  0  0  0  0  0  0  0  0
   27.7433   -2.5443    0.0000 C   0  0  0  0  0  0  0  0  0  0  0  0
   26.2898   -2.9150    0.0000 C   0  0  0  0  0  0  0  0  0  0  0  0
   25.2420   -1.8416    0.0000 C   0  0  0  0  0  0  0  0  0  0  0  0
   23.7886   -2.2123    0.0000 C   0  0  0  0  0  0  0  0  0  0  0  0
   22.7408   -1.1390    0.0000 C   0  0  0  0  0  0  0  0  0  0  0  0
   21.2873   -1.5097    0.0000 C   0  0  0  0  0  0  0  0  0  0  0  0
   20.2395   -0.4363    0.0000 C   0  0  0  0  0  0  0  0  0  0  0  0
   20.9826    0.8667    0.0000 O   0  0  0  0  0  0  0  0  0  0  0  0
   18.7861   -0.8070    0.0000 O   0  0  0  0  0  0  0  0  0  0  0  0
   17.7383    0.2663    0.0000 C   0  0  0  0  0  0  0  0  0  0  0  0
   16.2848   -0.1044    0.0000 C   0  0  0  0  0  0  0  0  0  0  0  0
   15.8791   -1.5485    0.0000 O   0  0  0  0  0  0  0  0  0  0  0  0
   14.4257   -1.9192    0.0000 C   0  0  0  0  0  0  0  0  0  0  0  0
   13.3779   -0.8458    0.0000 C   0  0  0  0  0  0  0  0  0  0  0  0
   13.7836    0.5983    0.0000 O   0  0  0  0  0  0  0  0  0  0  0  0
   11.9244   -1.2166    0.0000 C   0  0  0  0  0  0  0  0  0  0  0  0
   10.8766   -0.1432    0.0000 O   0  0  0  0  0  0  0  0  0  0  0  0
   11.5187   -2.6607    0.0000 C   0  0  0  0  0  0  0  0  0  0  0  0
   10.0653   -3.0314    0.0000 O   0  0  0  0  0  0  0  0  0  0  0  0
    9.6596   -4.4755    0.0000 C   0  0  0  0  0  0  0  0  0  0  0  0
    8.2061   -4.8462    0.0000 C   0  0  0  0  0  0  0  0  0  0  0  0
    7.1583   -3.7728    0.0000 O   0  0  0  0  0  0  0  0  0  0  0  0
    7.5640   -2.3287    0.0000 C   0  0  0  0  0  0  0  0  0  0  0  0
    9.0175   -1.9580    0.0000 C   0  0  0  0  0  0  0  0  0  0  0  0
    9.4232   -0.5139    0.0000 C   0  0  0  0  0  0  0  0  0  0  0  0
    8.3754    0.5595    0.0000 C   0  0  0  0  0  0  0  0  0  0  0  0
    8.7810    2.0036    0.0000 C   0  0  0  0  0  0  0  0  0  0  0  0
    7.7333    3.0769    0.0000 C   0  0  0  0  0  0  0  0  0  0  0  0
    6.5162   -1.2554    0.0000 C   0  0  0  0  0  0  0  0  0  0  0  0
    5.0628   -1.6261    0.0000 C   0  0  0  0  0  0  0  0  0  0  0  0
    4.0150   -0.5527    0.0000 C   0  0  0  0  0  0  0  0  0  0  0  0
    2.5615   -0.9234    0.0000 C   0  0  0  0  0  0  0  0  0  0  0  0
    1.5137    0.1499    0.0000 C   0  0  0  0  0  0  0  0  0  0  0  0
    0.0603   -0.2208    0.0000 C   0  0  0  0  0  0  0  0  0  0  0  0
   -0.9875    0.8526    0.0000 C   0  0  0  0  0  0  0  0  0  0  0  0
   -2.4410    0.4819    0.0000 C   0  0  0  0  0  0  0  0  0  0  0  0
   -3.4888    1.5553    0.0000 C   0  0  0  0  0  0  0  0  0  0  0  0
   -4.9423    1.1845    0.0000 C   0  0  0  0  0  0  0  0  0  0  0  0
   -5.3479   -0.2596    0.0000 O   0  0  0  0  0  0  0  0  0  0  0  0
   -5.9901    2.2579    0.0000 O   0  0  0  0  0  0  0  0  0  0  0  0
   -7.4435    1.8872    0.0000 C   0  0  0  0  0  0  0  0  0  0  0  0
   -8.4913    2.9606    0.0000 C   0  0  0  0  0  0  0  0  0  0  0  0
   -8.0856    4.4047    0.0000 O   0  0  0  0  0  0  0  0  0  0  0  0
   -9.9448    2.5898    0.0000 C   0  0  0  0  0  0  0  0  0  0  0  0
  -10.9926    3.6632    0.0000 O   0  0  0  0  0  0  0  0  0  0  0  0
  -10.3504    1.1457    0.0000 C   0  0  0  0  0  0  0  0  0  0  0  0
  -11.8039    0.7750    0.0000 O   0  0  0  0  0  0  0  0  0  0  0  0
  -12.2096   -0.6691    0.0000 C   0  0  0  0  0  0  0  0  0  0  0  0
  -11.1618   -1.7425    0.0000 C   0  0  0  0  0  0  0  0  0  0  0  0
   -9.7083   -1.3717    0.0000 O   0  0  0  0  0  0  0  0  0  0  0  0
   -8.6605   -2.4451    0.0000 C   0  0  0  0  0  0  0  0  0  0  0  0
   -7.2071   -2.0744    0.0000 O   0  0  0  0  0  0  0  0  0  0  0  0
   -6.1593   -3.1478    0.0000 C   0  0  0  0  0  0  0  0  0  0  0  0
   -4.7058   -2.7770    0.0000 C   0  0  0  0  0  0  0  0  0  0  0  0
   -6.5650   -4.5919    0.0000 C   0  0  0  0  0  0  0  0  0  0  0  0
   -5.5172   -5.6653    0.0000 O   0  0  0  0  0  0  0  0  0  0  0  0
   -5.9229   -7.1094    0.0000 C   0  0  0  0  0  0  0  0  0  0  0  0
   -7.3763   -7.4801    0.0000 O   0  0  0  0  0  0  0  0  0  0  0  0
   -4.8751   -8.1827    0.0000 C   0  0  0  0  0  0  0  0  0  0  0  0
   -5.2807   -9.6268    0.0000 C   0  0  0  0  0  0  0  0  0  0  0  0
   -3.4216   -7.8120    0.0000 C   0  0  0  0  0  0  0  0  0  0  0  0
   -2.3738   -8.8854    0.0000 C   0  0  0  0  0  0  0  0  0  0  0  0
   -8.0184   -4.9626    0.0000 C   0  0  0  0  0  0  0  0  0  0  0  0
   -8.4241   -6.4067    0.0000 O   0  0  0  0  0  0  0  0  0  0  0  0
   -9.0662   -3.8892    0.0000 C   0  0  0  0  0  0  0  0  0  0  0  0
  -10.0850   -4.2866    0.0000 O   0  0  0  0  0  0  0  0  0  0  0  0
  -11.5675   -3.1866    0.0000 C   0  0  0  0  0  0  0  0  0  0  0  0
  -10.9047   -4.0563    0.0000 C   0  0  0  0  0  0  0  0  0  0  0  0
  -13.0209   -3.5573    0.0000 O   0  0  0  0  0  0  0  0  0  0  0  0
  -14.0687   -2.4839    0.0000 C   0  0  0  0  0  0  0  0  0  0  0  0
  -15.5222   -2.8546    0.0000 O   0  0  0  0  0  0  0  0  0  0  0  0
  -16.5700   -1.7813    0.0000 C   0  0  0  0  0  0  0  0  0  0  0  0
  -18.0235   -2.1520    0.0000 C   0  0  0  0  0  0  0  0  0  0  0  0
  -18.3892   -3.6067    0.0000 O   0  0  0  0  0  0  0  0  0  0  0  0
  -19.2075   -4.8639    0.0000 C   0  0  0  0  0  0  0  0  0  0  0  0
  -18.1021   -5.8779    0.0000 O   0  0  0  0  0  0  0  0  0  0  0  0
  -20.3896   -5.7872    0.0000 C   0  0  0  0  0  0  0  0  0  0  0  0
  -21.8075   -6.2767    0.0000 C   0  0  0  0  0  0  0  0  0  0  0  0
  -23.3075   -6.2793    0.0000 C   0  0  0  0  0  0  0  0  0  0  0  0
  -24.7270   -5.7947    0.0000 C   0  0  0  0  0  0  0  0  0  0  0  0
  -25.9123   -4.8754    0.0000 C   0  0  0  0  0  0  0  0  0  0  0  0
  -26.7349   -3.6210    0.0000 C   0  0  0  0  0  0  0  0  0  0  0  0
  -27.1056   -2.1676    0.0000 C   0  0  0  0  0  0  0  0  0  0  0  0
  -26.9843   -0.6725    0.0000 C   0  0  0  0  0  0  0  0  0  0  0  0
  -26.3841    0.7022    0.0000 C   0  0  0  0  0  0  0  0  0  0  0  0
  -25.3701    1.8075    0.0000 C   0  0  0  0  0  0  0  0  0  0  0  0
  -26.2935    2.9897    0.0000 C   0  0  0  0  0  0  0  0  0  0  0  0
  -27.7789    2.7811    0.0000 C   0  0  0  0  0  0  0  0  0  0  0  0
  -28.7022    3.9632    0.0000 C   0  0  0  0  0  0  0  0  0  0  0  0
  -30.1877    3.7546    0.0000 C   0  0  0  0  0  0  0  0  0  0  0  0
  -31.1110    4.9367    0.0000 C   0  0  0  0  0  0  0  0  0  0  0  0
  -24.0521    2.5237    0.0000 O   0  0  0  0  0  0  0  0  0  0  0  0
  -22.5730    2.7731    0.0000 C   0  0  0  0  0  0  0  0  0  0  0  0
  -23.1014    4.1770    0.0000 O   0  0  0  0  0  0  0  0  0  0  0  0
  -22.1498    5.3365    0.0000 C   0  0  0  0  0  0  0  0  0  0  0  0
  -22.6781    6.7404    0.0000 C   0  0  0  0  0  0  0  0  0  0  0  0
  -20.6698    5.0922    0.0000 C   0  0  0  0  0  0  0  0  0  0  0  0
  -19.7182    6.2517    0.0000 O   0  0  0  0  0  0  0  0  0  0  0  0
  -20.1414    3.6883    0.0000 C   0  0  0  0  0  0  0  0  0  0  0  0
  -18.6615    3.4440    0.0000 O   0  0  0  0  0  0  0  0  0  0  0  0
  -21.0930    2.5288    0.0000 C   0  0  0  0  0  0  0  0  0  0  0  0
  -19.7726    1.8171    0.0000 O   0  0  0  0  0  0  0  0  0  0  0  0
  -18.7548    0.7153    0.0000 C   0  0  0  0  0  0  0  0  0  0  0  0
  -17.2121    0.7362    0.0000 O   0  0  0  0  0  0  0  0  0  0  0  0
  -16.1643   -0.3372    0.0000 C   0  0  0  0  0  0  0  0  0  0  0  0
  -15.4625    0.0409    0.0000 C   0  0  0  0  0  0  0  0  0  0  0  0
  -18.1499   -0.6573    0.0000 C   0  0  0  0  0  0  0  0  0  0  0  0
  -16.9349   -0.6508    0.0000 O   0  0  0  0  0  0  0  0  0  0  0  0
  -13.6631   -1.0398    0.0000 C   0  0  0  0  0  0  0  0  0  0  0  0
  -14.7108    0.0336    0.0000 O   0  0  0  0  0  0  0  0  0  0  0  0
  -14.3052    1.4777    0.0000 C   0  0  0  0  0  0  0  0  0  0  0  0
  -12.8517    1.8484    0.0000 O   0  0  0  0  0  0  0  0  0  0  0  0
  -15.3530    2.5510    0.0000 C   0  0  0  0  0  0  0  0  0  0  0  0
  -14.9473    3.9951    0.0000 C   0  0  0  0  0  0  0  0  0  0  0  0
  -15.9951    5.0685    0.0000 C   0  0  0  0  0  0  0  0  0  0  0  0
  -15.5894    6.5126    0.0000 C   0  0  0  0  0  0  0  0  0  0  0  0
  -16.6372    7.5860    0.0000 C   0  0  0  0  0  0  0  0  0  0  0  0
  -16.2315    9.0301    0.0000 C   0  0  0  0  0  0  0  0  0  0  0  0
  -17.2793   10.1035    0.0000 C   0  0  0  0  0  0  0  0  0  0  0  0
  -16.8736   11.5476    0.0000 C   0  0  0  0  0  0  0  0  0  0  0  0
  -17.9214   12.6209    0.0000 C   0  0  0  0  0  0  0  0  0  0  0  0
   -9.3027    0.0724    0.0000 O   0  0  0  0  0  0  0  0  0  0  0  0
   -7.8492    0.4431    0.0000 C   0  0  0  0  0  0  0  0  0  0  0  0
   -6.8014   -0.6303    0.0000 C   0  0  0  0  0  0  0  0  0  0  0  0
    7.8005   -6.2903    0.0000 O   0  0  0  0  0  0  0  0  0  0  0  0
    8.8482   -7.3637    0.0000 C   0  0  0  0  0  0  0  0  0  0  0  0
    8.4426   -8.8078    0.0000 C   0  0  0  0  0  0  0  0  0  0  0  0
   10.3017   -6.9930    0.0000 C   0  0  0  0  0  0  0  0  0  0  0  0
   11.3495   -8.0663    0.0000 O   0  0  0  0  0  0  0  0  0  0  0  0
   10.7074   -5.5489    0.0000 C   0  0  0  0  0  0  0  0  0  0  0  0
   12.1609   -5.1781    0.0000 O   0  0  0  0  0  0  0  0  0  0  0  0
   12.5665   -3.7340    0.0000 O   0  0  0  0  0  0  0  0  0  0  0  0
   14.0200   -3.3633    0.0000 C   0  0  0  0  0  0  0  0  0  0  0  0
   15.0678   -4.4367    0.0000 C   0  0  0  0  0  0  0  0  0  0  0  0
   15.2370    0.9690    0.0000 O   0  0  0  0  0  0  0  0  0  0  0  0
   15.6427    2.4131    0.0000 C   0  0  0  0  0  0  0  0  0  0  0  0
   14.5949    3.4865    0.0000 C   0  0  0  0  0  0  0  0  0  0  0  0
   17.0962    2.7838    0.0000 C   0  0  0  0  0  0  0  0  0  0  0  0
   17.5018    4.2279    0.0000 O   0  0  0  0  0  0  0  0  0  0  0  0
   18.9553    4.5986    0.0000 C   0  0  0  0  0  0  0  0  0  0  0  0
   20.0031    3.5253    0.0000 O   0  0  0  0  0  0  0  0  0  0  0  0
   21.4566    3.8960    0.0000 C   0  0  0  0  0  0  0  0  0  0  0  0
   22.6274    2.9583    0.0000 C   0  0  0  0  0  0  0  0  0  0  0  0
   21.8622    5.3401    0.0000 C   0  0  0  0  0  0  0  0  0  0  0  0
   23.3157    5.7108    0.0000 O   0  0  0  0  0  0  0  0  0  0  0  0
   23.7214    7.1549    0.0000 C   0  0  0  0  0  0  0  0  0  0  0  0
   22.6736    8.2283    0.0000 O   0  0  0  0  0  0  0  0  0  0  0  0
   25.1749    7.5256    0.0000 C   0  0  0  0  0  0  0  0  0  0  0  0
   25.5805    8.9697    0.0000 C   0  0  0  0  0  0  0  0  0  0  0  0
   26.2226    6.4523    0.0000 C   0  0  0  0  0  0  0  0  0  0  0  0
   27.6761    6.8230    0.0000 C   0  0  0  0  0  0  0  0  0  0  0  0
   20.8145    6.4135    0.0000 C   0  0  0  0  0  0  0  0  0  0  0  0
   21.2201    7.8576    0.0000 O   0  0  0  0  0  0  0  0  0  0  0  0
   19.3610    6.0427    0.0000 C   0  0  0  0  0  0  0  0  0  0  0  0
   18.3132    7.1161    0.0000 O   0  0  0  0  0  0  0  0  0  0  0  0
   18.1440    1.7104    0.0000 C   0  0  0  0  0  0  0  0  0  0  0  0
   19.5974    2.0812    0.0000 O   0  0  0  0  0  0  0  0  0  0  0  0
   20.6452    1.0078    0.0000 C   0  0  0  0  0  0  0  0  0  0  0  0
   20.2395   -0.4363    0.0000 O   0  0  0  0  0  0  0  0  0  0  0  0
   21.2873   -1.5097    0.0000 C   0  0  0  0  0  0  0  0  0  0  0  0
   20.8816   -2.9538    0.0000 C   0  0  0  0  0  0  0  0  0  0  0  0
   22.7408   -1.1390    0.0000 C   0  0  0  0  0  0  0  0  0  0  0  0
   23.4977   -2.4340    0.0000 O   0  0  0  0  0  0  0  0  0  0  0  0
   23.1465    0.3051    0.0000 C   0  0  0  0  0  0  0  0  0  0  0  0
   24.5999    0.6759    0.0000 O   0  0  0  0  0  0  0  0  0  0  0  0
   22.0987    1.3785    0.0000 C   0  0  0  0  0  0  0  0  0  0  0  0
   22.6774    2.7624    0.0000 O   0  0  0  0  0  0  0  0  0  0  0  0
  1  2  1  0
  2  3  1  0
  3  4  1  0
  4  5  1  0
  5  6  1  0
  6  7  1  0
  7  8  1  0
  8  9  1  0
  9 10  1  0
 10 11  2  0
 10 12  1  0
 13 12  1  1
 13 14  1  0
 14 15  1  6
 16 15  1  1
 16 17  1  0
 17 18  1  6
 17 19  1  0
 19 20  1  6
 19 21  1  0
 21 22  1  1
 23 22  1  6
 23 24  1  0
 24 25  1  1
 25 26  1  0
 26 27  1  6
 27 28  1  0
 28 29  1  0
 29 30  1  0
 30 31  1  0
 26 32  1  0
 32 33  1  0
 33 34  1  0
 34 35  1  0
 35 36  1  0
 36 37  1  0
 37 38  1  0
 38 39  1  0
 39 40  1  0
 40 41  1  0
 41 42  2  0
 41 43  1  0
 44 43  1  1
 44 45  1  0
 45 46  1  6
 45 47  1  0
 47 48  1  6
 47 49  1  0
 49 50  1  1
 51 50  1  6
 51 52  1  0
 52 53  1  1
 54 53  1  6
 54 55  1  0
 55 56  1  0
 56 57  1  1
 56 58  1  0
 58 59  1  1
 59 60  1  0
 60 61  2  0
 60 62  1  0
 62 63  1  1
 62 64  1  0
 64 65  1  0
 58 66  1  0
 66 67  1  1
 66 68  1  0
 68 69  1  1
 52 70  1  0
 70 71  1  6
 70 72  1  0
 72 73  1  0
 73 74  1  1
 75 74  1  6
 75 76  1  0
 76 77  1  1
 77 78  1  0
 78 79  2  0
 78 80  1  0
 80 81  1  0
 81 82  1  0
 82 83  1  0
 83 84  1  0
 84 85  1  0
 85 86  1  0
 86 87  1  0
 87 88  1  0
 88 89  1  0
 89 90  1  6
 90 91  1  0
 91 92  1  0
 92 93  1  0
 93 94  1  0
 89 95  1  0
 96 95  1  6
 96 97  1  0
 97 98  1  0
 98 99  1  6
 98100  1  0
100101  1  6
100102  1  0
102103  1  6
102104  1  0
104105  1  1
106105  1  6
106107  1  0
107108  1  0
108109  1  1
106110  1  0
110111  1  6
 73112  1  0
112113  1  6
113114  1  0
114115  2  0
114116  1  0
116117  1  0
117118  1  0
118119  1  0
119120  1  0
120121  1  0
121122  1  0
122123  1  0
123124  1  0
 49125  1  0
125126  1  0
126127  1  6
 24128  1  0
128129  1  0
129130  1  1
129131  1  0
131132  1  1
131133  1  0
133134  1  1
 21135  1  0
135136  1  0
136137  1  6
 14138  1  0
138139  1  0
139140  1  1
139141  1  0
141142  1  6
143142  1  1
143144  1  0
144145  1  0
145146  1  6
145147  1  0
147148  1  1
148149  1  0
149150  2  0
149151  1  0
151152  1  6
151153  1  0
153154  1  0
147155  1  0
155156  1  6
155157  1  0
157158  1  6
141159  1  0
159160  1  1
161160  1  1
161162  1  0
162163  1  0
163164  1  6
163165  1  0
165166  1  1
165167  1  0
167168  1  6
167169  1  0
169170  1  6
159 13  1  0
169161  1  0
136 16  1  0
157143  1  0
133 23  1  0
126 44  1  0
112 51  1  0
 68 54  1  0
108 75  1  0
110 76  1  0
104 96  1  0
M  END
>  <identifier>  (569) 
CNP0436823.1

>  <canonical_smiles>  (569) 
CCCCCCCCCC(=O)O[C@H]1[C@H](O[C@@H]2[C@@H](O)[C@@H](O)[C@H](O[C@H]3[C@H](O[C@@H](CCCCC)CCCCCCCCCC(=O)O[C@@H]4[C@@H](O)[C@@H](O)[C@H](O[C@@H]5[C@@H](O[C@@H]6O[C@@H](C)[C@@H](OC(=O)[C@H](C)CC)[C@@H](O)[C@H]6O)[C@H](C)O[C@@H](O[C@@H]6[C@H]7OC(=O)CCCCCCCCC[C@H](CCCCC)O[C@@H]8O[C@H](C)[C@H](O)[C@H](O)[C@H]8O[C@H](O[C@H]6C)[C@@H]7O)[C@@H]5OC(=O)CCCCCCCCC)O[C@H]4C)O[C@H](C)[C@H](O)[C@@H]3O)O[C@H]2C)O[C@@H](C)[C@H](O[C@@H]2O[C@@H](C)[C@H](OC(=O)[C@H](C)CC)[C@@H](O)[C@H]2O)[C@H]1O[C@@H]1O[C@@H](C)[C@H](O)[C@@H](O)[C@H]1O

>  <standard_inchi>  (569) 
InChI=1S/C122H212O48/c1-19-25-29-31-35-43-53-61-79(125)159-109-107(169-113-91(137)84(130)81(127)65(9)145-113)102(164-114-93(139)88(134)98(69(13)149-114)161-111(143)63(7)23-5)73(17)153-121(109)163-100-71(15)151-116(95(141)90(100)136)167-105-85(131)82(128)66(10)146-119(105)155-75(55-47-27-21-3)57-49-41-37-33-39-45-51-59-77(123)157-97-68(12)148-117(92(138)87(97)133)170-108-103(165-115-94(140)89(135)99(70(14)150-115)162-112(144)64(8)24-6)74(18)154-122(110(108)160-80(126)62-54-44-36-32-30-26-20-2)166-101-72(16)152-118-96(142)104(101)158-78(124)60-52-46-40-34-38-42-50-58-76(56-48-28-22-4)156-120-106(168-118)86(132)83(129)67(11)147-120/h63-76,81-110,113-122,127-142H,19-62H2,1-18H3/t63-,64-,65+,66-,67-,68+,69+,70+,71+,72+,73+,74+,75+,76+,81+,82+,83+,84-,85+,86+,87+,88+,89+,90+,91-,92-,93-,94-,95-,96-,97+,98+,99-,100+,101+,102+,103+,104+,105-,106-,107-,108-,109-,110-,113+,114+,115+,116+,117+,118+,119+,120+,121+,122+/m1/s1

>  <standard_inchi_key>  (569) 
CHKMFLQUOWKOCM-FAJOIEAQSA-N

>  <name>  (569) 
nan

>  <iupac_name>  (569) 
[(2~{S},3~{R},4~{S},5~{R},6~{S})-6-[(2~{S},3~{S},4~{R},5~{R},6~{S})-5-decanoyloxy-3-[(2~{S},3~{R},4~{S},5~{S},6~{S})-3,4-dihydroxy-6-methyl-5-[(2~{R})-2-methylbutanoyl]oxy-tetrahydropyran-2-yl]oxy-2-methyl-6-[[(1~{S},3~{R},4~{S},5~{R},6~{R},8~{R},10~{S},22~{S},23~{S},24~{S},26~{R})-4,5,26-trihydroxy-6,24-dimethyl-20-oxo-10-pentyl-2,7,9,21,25-pentaoxatricyclo[20.3.1.0^{3,8}]hexacosan-23-yl]oxy]tetrahydropyran-4-yl]oxy-4,5-dihydroxy-2-methyl-tetrahydropyran-3-yl] (11~{S})-11-[(2~{R},3~{R},4~{S},5~{R},6~{R})-3-[(2~{S},3~{R},4~{S},5~{R},6~{S})-5-[(2~{S},3~{R},4~{R},5~{S},6~{S})-3-decanoyloxy-5-[(2~{S},3~{R},4~{S},5~{R},6~{S})-3,4-dihydroxy-6-methyl-5-[(2~{R})-2-methylbutanoyl]oxy-tetrahydropyran-2-yl]oxy-6-methyl-4-[(2~{S},3~{R},4~{R},5~{R},6~{S})-3,4,5-trihydroxy-6-methyl-tetrahydropyran-2-yl]oxy-tetrahydropyran-2-yl]oxy-3,4-dihydroxy-6-methyl-tetrahydropyran-2-yl]oxy-4,5-dihydroxy-6-methyl-tetrahydropyran-2-yl]oxyhexadecanoate

>  <annotation_level>  (569) 
5

>  <total_atom_count>  (569) 
382

>  <heavy_atom_count>  (569) 
170

>  <molecular_weight>  (569) 
2446.99

>  <exact_molecular_weight>  (569) 
2445.41481

>  <molecular_formula>  (569) 
C122H212O48

>  <alogp>  (569) 
9.10

>  <topological_polar_surface_area>  (569) 
666.08

>  <rotatable_bond_count>  (569) 
59

>  <hydrogen_bond_acceptors>  (569) 
48

>  <hydrogen_bond_donors>  (569) 
16

>  <hydrogen_bond_acceptors_lipinski>  (569) 
48

>  <hydrogen_bond_donors_lipinski>  (569) 
16

>  <lipinski_rule_of_five_violations>  (569) 
4

>  <aromatic_rings_count>  (569) 
0

>  <qed_drug_likeliness>  (569) 
0.02

>  <formal_charge>  (569) 
0

>  <fractioncsp3>  (569) 
0.95

>  <number_of_minimal_rings>  (569) 
11

>  <van_der_walls_volume>  (569) 
nan

>  <contains_sugar>  (569) 
True

>  <contains_ring_sugars>  (569) 
True

>  <contains_linear_sugars>  (569) 
False

>  <murcko_framework>  (569) 
O1CCCCC1OC2COC(OC3COC(OC4CCCOC4OCCCCCCCCCCCOC5COC(OC6CC(OCC6OC7OCCCC7)OC8COC9OC%10CCCOC%10OCCCCCCCCCCCOC8C9)CC5)CC3)CC2OC%11OCCCC%11

>  <np_likeness>  (569) 
0.71

>  <chemical_class>  (569) 
Carboxylic acids and derivatives

>  <chemical_sub_class>  (569) 
Hexacarboxylic acids and derivatives

>  <chemical_super_class>  (569) 
Organic acids and derivatives

>  <direct_parent_classification>  (569) 
Hexacarboxylic acids and derivatives

>  <np_classifier_pathway>  (569) 
Fatty acids

>  <np_classifier_superclass>  (569) 
Fatty acyls

>  <np_classifier_class>  (569) 
Resin glycosides

>  <np_classifier_is_glycoside>  (569) 
True

>  <organisms>  (569) 
Ipomoea batatas

>  <collections>  (569) 
BIOFACQUIM|Latin America dataset

>  <dois>  (569) 
10.1021/np500523w

>  <synonyms>  (569) 
Batatin X

>  <cas>  (569) 
nan

$$$$

     RDKit          2D

171182  0  0  0  0  0  0  0  0999 V2000
   17.5394   10.2901    0.0000 C   0  0  0  0  0  0  0  0  0  0  0  0
   17.4883    8.7910    0.0000 C   0  0  0  0  0  0  0  0  0  0  0  0
   16.1644    8.0857    0.0000 C   0  0  0  0  0  0  0  0  0  0  0  0
   16.1132    6.5866    0.0000 C   0  0  0  0  0  0  0  0  0  0  0  0
   14.7894    5.8813    0.0000 C   0  0  0  0  0  0  0  0  0  0  0  0
   14.7382    4.3822    0.0000 C   0  0  0  0  0  0  0  0  0  0  0  0
   13.4143    3.6769    0.0000 C   0  0  0  0  0  0  0  0  0  0  0  0
   13.3632    2.1778    0.0000 C   0  0  0  0  0  0  0  0  0  0  0  0
   12.0393    1.4725    0.0000 C   0  0  0  0  0  0  0  0  0  0  0  0
   11.9882   -0.0266    0.0000 C   0  0  0  0  0  0  0  0  0  0  0  0
   10.6643   -0.7318    0.0000 C   0  0  0  0  0  0  0  0  0  0  0  0
    9.3916    0.0620    0.0000 C   0  0  0  0  0  0  0  0  0  0  0  0
    9.4428    1.5612    0.0000 O   0  0  0  0  0  0  0  0  0  0  0  0
    8.0677   -0.6432    0.0000 O   0  0  0  0  0  0  0  0  0  0  0  0
    6.7950    0.1506    0.0000 C   0  0  0  0  0  0  0  0  0  0  0  0
    5.4712   -0.5546    0.0000 C   0  0  0  0  0  0  0  0  0  0  0  0
    5.4200   -2.0538    0.0000 O   0  0  0  0  0  0  0  0  0  0  0  0
    6.6927   -2.8476    0.0000 C   0  0  0  0  0  0  0  0  0  0  0  0
    6.6416   -4.3467    0.0000 C   0  0  0  0  0  0  0  0  0  0  0  0
    5.3177   -5.0520    0.0000 O   0  0  0  0  0  0  0  0  0  0  0  0
    7.9143   -5.1406    0.0000 C   0  0  0  0  0  0  0  0  0  0  0  0
    6.9114   -6.2561    0.0000 O   0  0  0  0  0  0  0  0  0  0  0  0
    6.3506   -7.6474    0.0000 C   0  0  0  0  0  0  0  0  0  0  0  0
    4.8832   -7.3366    0.0000 O   0  0  0  0  0  0  0  0  0  0  0  0
    6.2995   -9.1465    0.0000 C   0  0  0  0  0  0  0  0  0  0  0  0
    6.7641  -10.5727    0.0000 C   0  0  0  0  0  0  0  0  0  0  0  0
    7.6886  -11.7540    0.0000 C   0  0  0  0  0  0  0  0  0  0  0  0
    8.9613  -12.5478    0.0000 C   0  0  0  0  0  0  0  0  0  0  0  0
   10.4287  -12.8586    0.0000 C   0  0  0  0  0  0  0  0  0  0  0  0
   11.9140  -12.6486    0.0000 C   0  0  0  0  0  0  0  0  0  0  0  0
   13.2378  -11.9434    0.0000 C   0  0  0  0  0  0  0  0  0  0  0  0
   14.2406  -10.8278    0.0000 C   0  0  0  0  0  0  0  0  0  0  0  0
   14.8015   -9.4366    0.0000 C   0  0  0  0  0  0  0  0  0  0  0  0
   14.8526   -7.9375    0.0000 C   0  0  0  0  0  0  0  0  0  0  0  0
   16.3378   -7.7276    0.0000 C   0  0  0  0  0  0  0  0  0  0  0  0
   17.2623   -8.9088    0.0000 C   0  0  0  0  0  0  0  0  0  0  0  0
   18.7475   -8.6989    0.0000 C   0  0  0  0  0  0  0  0  0  0  0  0
   19.6719   -9.8802    0.0000 C   0  0  0  0  0  0  0  0  0  0  0  0
   21.1572   -9.6702    0.0000 C   0  0  0  0  0  0  0  0  0  0  0  0
   14.3880   -6.5113    0.0000 O   0  0  0  0  0  0  0  0  0  0  0  0
   13.4635   -5.3300    0.0000 C   0  0  0  0  0  0  0  0  0  0  0  0
   14.7874   -4.6247    0.0000 O   0  0  0  0  0  0  0  0  0  0  0  0
   14.8385   -3.1256    0.0000 C   0  0  0  0  0  0  0  0  0  0  0  0
   16.1624   -2.4204    0.0000 C   0  0  0  0  0  0  0  0  0  0  0  0
   13.5658   -2.3317    0.0000 C   0  0  0  0  0  0  0  0  0  0  0  0
   13.6170   -0.8326    0.0000 O   0  0  0  0  0  0  0  0  0  0  0  0
   12.2420   -3.0370    0.0000 C   0  0  0  0  0  0  0  0  0  0  0  0
   10.9693   -2.2431    0.0000 O   0  0  0  0  0  0  0  0  0  0  0  0
   12.1908   -4.5361    0.0000 C   0  0  0  0  0  0  0  0  0  0  0  0
   10.7234   -4.2254    0.0000 O   0  0  0  0  0  0  0  0  0  0  0  0
    9.2381   -4.4354    0.0000 C   0  0  0  0  0  0  0  0  0  0  0  0
    9.2893   -2.9362    0.0000 O   0  0  0  0  0  0  0  0  0  0  0  0
    8.0166   -2.1424    0.0000 C   0  0  0  0  0  0  0  0  0  0  0  0
    8.2357   -1.3759    0.0000 C   0  0  0  0  0  0  0  0  0  0  0  0
    4.1985    0.2392    0.0000 O   0  0  0  0  0  0  0  0  0  0  0  0
    4.2496    1.7384    0.0000 C   0  0  0  0  0  0  0  0  0  0  0  0
    2.9769    2.5322    0.0000 C   0  0  0  0  0  0  0  0  0  0  0  0
    5.5735    2.4436    0.0000 C   0  0  0  0  0  0  0  0  0  0  0  0
    5.6247    3.9428    0.0000 O   0  0  0  0  0  0  0  0  0  0  0  0
    6.9485    4.6480    0.0000 C   0  0  0  0  0  0  0  0  0  0  0  0
    8.2212    3.8541    0.0000 O   0  0  0  0  0  0  0  0  0  0  0  0
    9.5451    4.5594    0.0000 C   0  0  0  0  0  0  0  0  0  0  0  0
   10.8178    3.7655    0.0000 C   0  0  0  0  0  0  0  0  0  0  0  0
    9.5962    6.0585    0.0000 C   0  0  0  0  0  0  0  0  0  0  0  0
   10.9201    6.7638    0.0000 O   0  0  0  0  0  0  0  0  0  0  0  0
   10.9713    8.2629    0.0000 C   0  0  0  0  0  0  0  0  0  0  0  0
    9.6986    9.0568    0.0000 O   0  0  0  0  0  0  0  0  0  0  0  0
   12.2951    8.9682    0.0000 C   0  0  0  0  0  0  0  0  0  0  0  0
   12.3463   10.4673    0.0000 C   0  0  0  0  0  0  0  0  0  0  0  0
   13.5678    8.1743    0.0000 C   0  0  0  0  0  0  0  0  0  0  0  0
   14.8917    8.8796    0.0000 C   0  0  0  0  0  0  0  0  0  0  0  0
    8.3235    6.8524    0.0000 C   0  0  0  0  0  0  0  0  0  0  0  0
    8.5571    8.3341    0.0000 O   0  0  0  0  0  0  0  0  0  0  0  0
    6.9997    6.1471    0.0000 C   0  0  0  0  0  0  0  0  0  0  0  0
    5.8332    7.0902    0.0000 O   0  0  0  0  0  0  0  0  0  0  0  0
    6.8462    1.6498    0.0000 C   0  0  0  0  0  0  0  0  0  0  0  0
    8.1701    2.3550    0.0000 O   0  0  0  0  0  0  0  0  0  0  0  0
    8.2212    3.8541    0.0000 C   0  0  0  0  0  0  0  0  0  0  0  0
    9.5451    4.5594    0.0000 O   0  0  0  0  0  0  0  0  0  0  0  0
    9.5962    6.0585    0.0000 C   0  0  0  0  0  0  0  0  0  0  0  0
   10.7101    7.0632    0.0000 C   0  0  0  0  0  0  0  0  0  0  0  0
    8.3235    6.8524    0.0000 C   0  0  0  0  0  0  0  0  0  0  0  0
    8.1916    8.3466    0.0000 O   0  0  0  0  0  0  0  0  0  0  0  0
    6.9997    6.1471    0.0000 C   0  0  0  0  0  0  0  0  0  0  0  0
    5.6397    6.7800    0.0000 O   0  0  0  0  0  0  0  0  0  0  0  0
    6.9485    4.6480    0.0000 C   0  0  0  0  0  0  0  0  0  0  0  0
    5.6247    3.9428    0.0000 O   0  0  0  0  0  0  0  0  0  0  0  0
    4.3520    4.7366    0.0000 C   0  0  0  0  0  0  0  0  0  0  0  0
    4.4031    6.2358    0.0000 O   0  0  0  0  0  0  0  0  0  0  0  0
    3.0281    4.0314    0.0000 C   0  0  0  0  0  0  0  0  0  0  0  0
    1.7554    4.8252    0.0000 C   0  0  0  0  0  0  0  0  0  0  0  0
    0.4315    4.1200    0.0000 C   0  0  0  0  0  0  0  0  0  0  0  0
   -0.8412    4.9139    0.0000 C   0  0  0  0  0  0  0  0  0  0  0  0
   -2.1650    4.2086    0.0000 C   0  0  0  0  0  0  0  0  0  0  0  0
   -3.4377    5.0025    0.0000 C   0  0  0  0  0  0  0  0  0  0  0  0
   -4.7616    4.2972    0.0000 C   0  0  0  0  0  0  0  0  0  0  0  0
   -6.0343    5.0911    0.0000 C   0  0  0  0  0  0  0  0  0  0  0  0
   -7.3582    4.3858    0.0000 C   0  0  0  0  0  0  0  0  0  0  0  0
   -8.6309    5.1797    0.0000 C   0  0  0  0  0  0  0  0  0  0  0  0
   -9.9547    4.4744    0.0000 C   0  0  0  0  0  0  0  0  0  0  0  0
  -11.2274    5.2683    0.0000 C   0  0  0  0  0  0  0  0  0  0  0  0
  -12.5513    4.5630    0.0000 C   0  0  0  0  0  0  0  0  0  0  0  0
  -13.8240    5.3569    0.0000 C   0  0  0  0  0  0  0  0  0  0  0  0
  -15.2792    4.9930    0.0000 C   0  0  0  0  0  0  0  0  0  0  0  0
   -8.5797    6.6788    0.0000 O   0  0  0  0  0  0  0  0  0  0  0  0
   -9.8524    7.4727    0.0000 C   0  0  0  0  0  0  0  0  0  0  0  0
   -9.8013    8.9718    0.0000 O   0  0  0  0  0  0  0  0  0  0  0  0
  -11.0740    9.7657    0.0000 C   0  0  0  0  0  0  0  0  0  0  0  0
  -11.0228   11.2648    0.0000 C   0  0  0  0  0  0  0  0  0  0  0  0
  -12.3978    9.0604    0.0000 C   0  0  0  0  0  0  0  0  0  0  0  0
  -13.6705    9.8543    0.0000 O   0  0  0  0  0  0  0  0  0  0  0  0
  -12.4490    7.5613    0.0000 C   0  0  0  0  0  0  0  0  0  0  0  0
  -13.7728    6.8560    0.0000 O   0  0  0  0  0  0  0  0  0  0  0  0
  -11.1763    6.7674    0.0000 C   0  0  0  0  0  0  0  0  0  0  0  0
  -11.2274    5.2683    0.0000 O   0  0  0  0  0  0  0  0  0  0  0  0
  -12.5513    4.5630    0.0000 C   0  0  0  0  0  0  0  0  0  0  0  0
  -13.8240    5.3569    0.0000 O   0  0  0  0  0  0  0  0  0  0  0  0
  -15.1479    4.6517    0.0000 C   0  0  0  0  0  0  0  0  0  0  0  0
  -16.4206    5.4455    0.0000 C   0  0  0  0  0  0  0  0  0  0  0  0
  -15.1990    3.1525    0.0000 C   0  0  0  0  0  0  0  0  0  0  0  0
  -16.5229    2.4473    0.0000 O   0  0  0  0  0  0  0  0  0  0  0  0
  -16.5740    0.9481    0.0000 C   0  0  0  0  0  0  0  0  0  0  0  0
  -17.8979    0.2429    0.0000 O   0  0  0  0  0  0  0  0  0  0  0  0
  -17.9491   -1.2562    0.0000 C   0  0  0  0  0  0  0  0  0  0  0  0
  -19.2729   -1.9615    0.0000 C   0  0  0  0  0  0  0  0  0  0  0  0
  -16.6764   -2.0501    0.0000 C   0  0  0  0  0  0  0  0  0  0  0  0
  -16.7275   -3.5492    0.0000 O   0  0  0  0  0  0  0  0  0  0  0  0
  -15.4548   -4.3431    0.0000 C   0  0  0  0  0  0  0  0  0  0  0  0
  -15.5060   -5.8422    0.0000 O   0  0  0  0  0  0  0  0  0  0  0  0
  -14.2333   -6.6361    0.0000 C   0  0  0  0  0  0  0  0  0  0  0  0
  -14.4668   -8.1178    0.0000 C   0  0  0  0  0  0  0  0  0  0  0  0
  -12.9094   -5.9308    0.0000 C   0  0  0  0  0  0  0  0  0  0  0  0
  -11.6367   -6.7247    0.0000 O   0  0  0  0  0  0  0  0  0  0  0  0
  -10.3129   -6.0195    0.0000 C   0  0  0  0  0  0  0  0  0  0  0  0
   -9.9005   -4.5773    0.0000 O   0  0  0  0  0  0  0  0  0  0  0  0
   -9.0402   -6.8133    0.0000 C   0  0  0  0  0  0  0  0  0  0  0  0
   -7.7163   -6.1081    0.0000 C   0  0  0  0  0  0  0  0  0  0  0  0
   -9.0913   -8.3125    0.0000 C   0  0  0  0  0  0  0  0  0  0  0  0
   -7.8186   -9.1063    0.0000 C   0  0  0  0  0  0  0  0  0  0  0  0
  -12.8583   -4.4317    0.0000 C   0  0  0  0  0  0  0  0  0  0  0  0
  -11.5344   -3.7265    0.0000 O   0  0  0  0  0  0  0  0  0  0  0  0
  -10.2617   -4.5203    0.0000 C   0  0  0  0  0  0  0  0  0  0  0  0
   -9.9486   -5.9873    0.0000 O   0  0  0  0  0  0  0  0  0  0  0  0
   -8.9378   -3.8151    0.0000 C   0  0  0  0  0  0  0  0  0  0  0  0
   -7.6651   -4.6089    0.0000 C   0  0  0  0  0  0  0  0  0  0  0  0
   -6.3413   -3.9037    0.0000 C   0  0  0  0  0  0  0  0  0  0  0  0
   -5.0686   -4.6976    0.0000 C   0  0  0  0  0  0  0  0  0  0  0  0
   -3.7447   -3.9923    0.0000 C   0  0  0  0  0  0  0  0  0  0  0  0
   -3.6935   -2.4932    0.0000 C   0  0  0  0  0  0  0  0  0  0  0  0
   -4.9662   -1.6993    0.0000 C   0  0  0  0  0  0  0  0  0  0  0  0
   -6.2901   -2.4046    0.0000 C   0  0  0  0  0  0  0  0  0  0  0  0
  -14.1310   -3.6379    0.0000 C   0  0  0  0  0  0  0  0  0  0  0  0
  -13.7186   -2.1957    0.0000 O   0  0  0  0  0  0  0  0  0  0  0  0
  -15.3525   -1.3449    0.0000 C   0  0  0  0  0  0  0  0  0  0  0  0
  -14.0798   -2.1387    0.0000 O   0  0  0  0  0  0  0  0  0  0  0  0
  -14.1310   -3.6379    0.0000 C   0  0  0  0  0  0  0  0  0  0  0  0
  -15.4548   -4.3431    0.0000 O   0  0  0  0  0  0  0  0  0  0  0  0
  -15.5060   -5.8422    0.0000 C   0  0  0  0  0  0  0  0  0  0  0  0
  -16.8298   -6.5475    0.0000 C   0  0  0  0  0  0  0  0  0  0  0  0
  -14.2333   -6.6361    0.0000 C   0  0  0  0  0  0  0  0  0  0  0  0
  -14.1013   -8.1303    0.0000 O   0  0  0  0  0  0  0  0  0  0  0  0
  -12.9094   -5.9308    0.0000 C   0  0  0  0  0  0  0  0  0  0  0  0
  -11.4824   -6.3932    0.0000 O   0  0  0  0  0  0  0  0  0  0  0  0
  -12.8583   -4.4317    0.0000 C   0  0  0  0  0  0  0  0  0  0  0  0
  -11.7444   -3.4271    0.0000 O   0  0  0  0  0  0  0  0  0  0  0  0
  -15.3013    0.1543    0.0000 C   0  0  0  0  0  0  0  0  0  0  0  0
  -13.9014    0.6929    0.0000 O   0  0  0  0  0  0  0  0  0  0  0  0
  -13.9263    2.3587    0.0000 C   0  0  0  0  0  0  0  0  0  0  0  0
  -13.7944    0.8645    0.0000 O   0  0  0  0  0  0  0  0  0  0  0  0
  -12.6025    3.0639    0.0000 C   0  0  0  0  0  0  0  0  0  0  0  0
  -11.3298    2.2700    0.0000 O   0  0  0  0  0  0  0  0  0  0  0  0
  1  2  1  0
  2  3  1  0
  3  4  1  0
  4  5  1  0
  5  6  1  0
  6  7  1  0
  7  8  1  0
  8  9  1  0
  9 10  1  0
 10 11  1  0
 11 12  1  0
 12 13  2  0
 12 14  1  0
 15 14  1  1
 15 16  1  0
 16 17  1  6
 18 17  1  1
 18 19  1  0
 19 20  1  6
 19 21  1  0
 21 22  1  6
 22 23  1  0
 23 24  2  0
 23 25  1  0
 25 26  1  0
 26 27  1  0
 27 28  1  0
 28 29  1  0
 29 30  1  0
 30 31  1  0
 31 32  1  0
 32 33  1  0
 33 34  1  0
 34 35  1  1
 35 36  1  0
 36 37  1  0
 37 38  1  0
 38 39  1  0
 34 40  1  0
 41 40  1  1
 41 42  1  0
 42 43  1  0
 43 44  1  1
 43 45  1  0
 45 46  1  1
 45 47  1  0
 47 48  1  1
 47 49  1  0
 49 50  1  6
 51 50  1  1
 51 52  1  0
 52 53  1  0
 53 54  1  6
 16 55  1  0
 55 56  1  0
 56 57  1  1
 56 58  1  0
 58 59  1  6
 60 59  1  1
 60 61  1  0
 61 62  1  0
 62 63  1  6
 62 64  1  0
 64 65  1  6
 65 66  1  0
 66 67  2  0
 66 68  1  0
 68 69  1  0
 68 70  1  0
 70 71  1  0
 64 72  1  0
 72 73  1  6
 72 74  1  0
 74 75  1  6
 58 76  1  0
 76 77  1  1
 78 77  1  1
 78 79  1  0
 79 80  1  0
 80 81  1  6
 80 82  1  0
 82 83  1  1
 82 84  1  0
 84 85  1  6
 84 86  1  0
 86 87  1  6
 87 88  1  0
 88 89  2  0
 88 90  1  0
 90 91  1  0
 91 92  1  0
 92 93  1  0
 93 94  1  0
 94 95  1  0
 95 96  1  0
 96 97  1  0
 97 98  1  0
 99 98  1  6
 99100  1  0
100101  1  0
101102  1  0
102103  1  0
103104  1  0
 99105  1  0
106105  1  1
106107  1  0
107108  1  0
108109  1  1
108110  1  0
110111  1  1
110112  1  0
112113  1  1
112114  1  0
114115  1  6
116115  1  1
116117  1  0
117118  1  0
118119  1  6
118120  1  0
120121  1  1
122121  1  1
122123  1  0
123124  1  0
124125  1  6
124126  1  0
126127  1  1
128127  1  1
128129  1  0
129130  1  0
130131  1  6
130132  1  0
132133  1  1
133134  1  0
134135  2  0
134136  1  0
136137  1  0
136138  1  0
138139  1  0
132140  1  0
140141  1  6
141142  1  0
142143  2  0
142144  1  0
144145  2  0
145146  1  0
146147  2  0
147148  1  0
148149  2  0
149150  1  0
150151  2  0
140152  1  0
152153  1  6
126154  1  0
154155  1  6
156155  1  1
156157  1  0
157158  1  0
158159  1  6
158160  1  0
160161  1  1
160162  1  0
162163  1  6
162164  1  0
164165  1  6
154166  1  0
166167  1  6
120168  1  0
168169  1  6
168170  1  0
170171  1  6
 76 15  1  0
 86 78  1  0
114106  1  0
170116  1  0
 53 18  1  0
 74 60  1  0
166122  1  0
 51 21  1  0
152128  1  0
164156  1  0
 49 41  1  0
151146  1  0
M  END
>  <identifier>  (570) 
CNP0436837.1

>  <canonical_smiles>  (570) 
CCCCCCCCCCCC(=O)O[C@H]1[C@H](O[C@@H]2[C@@H](O)[C@H]3OC(=O)CCCCCCCCC[C@H](CCCCC)O[C@@H]4O[C@H](C)[C@H](O)[C@H](O)[C@H]4O[C@@H]3O[C@H]2C)O[C@@H](C)[C@H](O[C@@H]2O[C@@H](C)[C@@H](OC(=O)C(C)CC)[C@@H](O)[C@H]2O)[C@H]1O[C@@H]1O[C@@H](C)[C@H](O)[C@@H](O)[C@H]1OC(=O)CCCCCCCCC[C@H](CCCCC)O[C@@H]1O[C@H](C)[C@H](O)[C@H](O)[C@H]1O[C@@H]1O[C@@H](C)[C@H](O[C@@H]2O[C@@H](C)[C@H](O[C@@H]3O[C@@H](C)[C@H](OC(=O)C(C)CC)[C@@H](OC(=O)/C=C/C4=CC=CC=C4)[C@H]3O)[C@@H](O[C@@H]3O[C@@H](C)[C@H](O)[C@@H](O)[C@H]3O)[C@H]2O)[C@@H](O)[C@H]1O

>  <standard_inchi>  (570) 
InChI=1S/C123H204O48/c1-18-23-26-27-28-29-34-39-51-60-80(126)161-111-110(103(167-115-93(139)90(136)98(69(12)150-115)162-112(144)63(6)21-4)74(17)155-123(111)165-100-71(14)154-122-109(95(100)141)160-79(125)59-50-41-36-31-33-38-48-57-77(55-44-25-20-3)157-120-108(170-122)89(135)85(131)67(10)148-120)171-121-106(87(133)83(129)68(11)149-121)159-78(124)58-49-40-35-30-32-37-47-56-76(54-43-24-19-2)156-119-107(88(134)84(130)66(9)147-119)169-116-94(140)91(137)99(70(13)151-116)164-117-97(143)105(168-114-92(138)86(132)82(128)65(8)146-114)102(73(16)153-117)166-118-96(142)104(101(72(15)152-118)163-113(145)64(7)22-5)158-81(127)62-61-75-52-45-42-46-53-75/h42,45-46,52-53,61-74,76-77,82-111,114-123,128-143H,18-41,43-44,47-51,54-60H2,1-17H3/b62-61+/t63?,64?,65-,66+,67+,68-,69-,70-,71-,72-,73-,74-,76-,77-,82-,83-,84-,85-,86+,87+,88-,89-,90-,91-,92+,93+,94+,95+,96+,97+,98+,99-,100-,101-,102-,103-,104-,105-,106+,107+,108+,109+,110+,111+,114-,115-,116-,117-,118-,119-,120-,121-,122-,123-/m0/s1

>  <standard_inchi_key>  (570) 
NLQCHCZNBIGNLD-YMQZVHCWSA-N

>  <name>  (570) 
nan

>  <iupac_name>  (570) 
[(2~{S},3~{R},4~{R},5~{R},6~{S})-2-[(2~{S},3~{S},4~{R},5~{R},6~{S})-3-[(2~{S},3~{R},4~{S},5~{S},6~{S})-3,4-dihydroxy-6-methyl-5-(2-methylbutanoyloxy)tetrahydropyran-2-yl]oxy-5-dodecanoyloxy-2-methyl-6-[[(1~{R},3~{S},5~{S},6~{R},7~{R},8~{R},20~{S},22~{R},24~{R},25~{R},26~{S})-7,25,26-trihydroxy-5,24-dimethyl-10-oxo-20-pentyl-2,4,9,21,23-pentaoxatricyclo[20.4.0.0^{3,8}]hexacosan-6-yl]oxy]tetrahydropyran-4-yl]oxy-4,5-dihydroxy-6-methyl-tetrahydropyran-3-yl] (11~{S})-11-[(2~{R},3~{R},4~{S},5~{R},6~{R})-3-[(2~{S},3~{R},4~{S},5~{R},6~{S})-3,4-dihydroxy-5-[(2~{S},3~{R},4~{S},5~{S},6~{S})-3-hydroxy-5-[(2~{S},3~{R},4~{S},5~{S},6~{S})-3-hydroxy-6-methyl-5-(2-methylbutanoyloxy)-4-[(~{E})-3-phenylprop-2-enoyl]oxy-tetrahydropyran-2-yl]oxy-6-methyl-4-[(2~{S},3~{R},4~{R},5~{R},6~{S})-3,4,5-trihydroxy-6-methyl-tetrahydropyran-2-yl]oxy-tetrahydropyran-2-yl]oxy-6-methyl-tetrahydropyran-2-yl]oxy-4,5-dihydroxy-6-methyl-tetrahydropyran-2-yl]oxyhexadecanoate

>  <annotation_level>  (570) 
5

>  <total_atom_count>  (570) 
375

>  <heavy_atom_count>  (570) 
171

>  <molecular_weight>  (570) 
2450.94

>  <exact_molecular_weight>  (570) 
2449.35221

>  <molecular_formula>  (570) 
C123H204O48

>  <alogp>  (570) 
8.45

>  <topological_polar_surface_area>  (570) 
666.08

>  <rotatable_bond_count>  (570) 
55

>  <hydrogen_bond_acceptors>  (570) 
48

>  <hydrogen_bond_donors>  (570) 
16

>  <hydrogen_bond_acceptors_lipinski>  (570) 
48

>  <hydrogen_bond_donors_lipinski>  (570) 
16

>  <lipinski_rule_of_five_violations>  (570) 
4

>  <aromatic_rings_count>  (570) 
1

>  <qed_drug_likeliness>  (570) 
0.01

>  <formal_charge>  (570) 
0

>  <fractioncsp3>  (570) 
0.89

>  <number_of_minimal_rings>  (570) 
12

>  <van_der_walls_volume>  (570) 
nan

>  <contains_sugar>  (570) 
True

>  <contains_ring_sugars>  (570) 
True

>  <contains_linear_sugars>  (570) 
False

>  <murcko_framework>  (570) 
O1CCCCC1OC2COC(OC3COC4OC5CCCOC5OCCCCCCCCCCCOC4C3)CC2OC6OCCCC6OCCCCCCCCCCCOC7OCCCC7OC8OCC(OC9OCC(OC%10OCCC(OCC=Cc%11ccccc%11)C%10)C(OC%12OCCCC%12)C9)CC8

>  <np_likeness>  (570) 
0.80

>  <chemical_class>  (570) 
Carboxylic acids and derivatives

>  <chemical_sub_class>  (570) 
Hexacarboxylic acids and derivatives

>  <chemical_super_class>  (570) 
Organic acids and derivatives

>  <direct_parent_classification>  (570) 
Hexacarboxylic acids and derivatives

>  <np_classifier_pathway>  (570) 
Fatty acids

>  <np_classifier_superclass>  (570) 
Fatty acyls

>  <np_classifier_class>  (570) 
Resin glycosides

>  <np_classifier_is_glycoside>  (570) 
True

>  <organisms>  (570) 
Ipomoea batatas

>  <collections>  (570) 
BIOFACQUIM|Latin America dataset

>  <dois>  (570) 
10.1021/np500523w

>  <synonyms>  (570) 
Batatin IX

>  <cas>  (570) 
nan

$$$$

     RDKit          2D

174184  0  0  0  0  0  0  0  0999 V2000
   33.6981   -4.5888    0.0000 C   0  0  0  0  0  0  0  0  0  0  0  0
   32.6329   -3.5327    0.0000 C   0  0  0  0  0  0  0  0  0  0  0  0
   31.1857   -3.9271    0.0000 C   0  0  0  0  0  0  0  0  0  0  0  0
   30.1205   -2.8710    0.0000 C   0  0  0  0  0  0  0  0  0  0  0  0
   28.6733   -3.2655    0.0000 C   0  0  0  0  0  0  0  0  0  0  0  0
   27.6081   -2.2094    0.0000 C   0  0  0  0  0  0  0  0  0  0  0  0
   26.1609   -2.6038    0.0000 C   0  0  0  0  0  0  0  0  0  0  0  0
   25.0957   -1.5477    0.0000 C   0  0  0  0  0  0  0  0  0  0  0  0
   23.6484   -1.9422    0.0000 C   0  0  0  0  0  0  0  0  0  0  0  0
   22.5832   -0.8861    0.0000 C   0  0  0  0  0  0  0  0  0  0  0  0
   21.1360   -1.2805    0.0000 C   0  0  0  0  0  0  0  0  0  0  0  0
   20.0708   -0.2244    0.0000 C   0  0  0  0  0  0  0  0  0  0  0  0
   20.7925    1.0906    0.0000 O   0  0  0  0  0  0  0  0  0  0  0  0
   18.6236   -0.6188    0.0000 O   0  0  0  0  0  0  0  0  0  0  0  0
   17.5584    0.4373    0.0000 C   0  0  0  0  0  0  0  0  0  0  0  0
   16.1112    0.0428    0.0000 C   0  0  0  0  0  0  0  0  0  0  0  0
   15.7292   -1.4077    0.0000 O   0  0  0  0  0  0  0  0  0  0  0  0
   14.2820   -1.8022    0.0000 C   0  0  0  0  0  0  0  0  0  0  0  0
   13.2168   -0.7461    0.0000 C   0  0  0  0  0  0  0  0  0  0  0  0
   13.5988    0.7045    0.0000 O   0  0  0  0  0  0  0  0  0  0  0  0
   11.7696   -1.1405    0.0000 C   0  0  0  0  0  0  0  0  0  0  0  0
   10.7044   -0.0844    0.0000 O   0  0  0  0  0  0  0  0  0  0  0  0
   11.3876   -2.5911    0.0000 C   0  0  0  0  0  0  0  0  0  0  0  0
    9.9404   -2.9855    0.0000 O   0  0  0  0  0  0  0  0  0  0  0  0
    9.5584   -4.4360    0.0000 C   0  0  0  0  0  0  0  0  0  0  0  0
    8.1111   -4.8305    0.0000 C   0  0  0  0  0  0  0  0  0  0  0  0
    7.0459   -3.7744    0.0000 O   0  0  0  0  0  0  0  0  0  0  0  0
    7.4280   -2.3238    0.0000 C   0  0  0  0  0  0  0  0  0  0  0  0
    8.8752   -1.9294    0.0000 C   0  0  0  0  0  0  0  0  0  0  0  0
    9.2572   -0.4789    0.0000 C   0  0  0  0  0  0  0  0  0  0  0  0
    8.1920    0.5772    0.0000 C   0  0  0  0  0  0  0  0  0  0  0  0
    8.5740    2.0278    0.0000 C   0  0  0  0  0  0  0  0  0  0  0  0
    7.5088    3.0839    0.0000 C   0  0  0  0  0  0  0  0  0  0  0  0
    6.3628   -1.2677    0.0000 C   0  0  0  0  0  0  0  0  0  0  0  0
    4.9155   -1.6622    0.0000 C   0  0  0  0  0  0  0  0  0  0  0  0
    3.8503   -0.6061    0.0000 C   0  0  0  0  0  0  0  0  0  0  0  0
    2.4031   -1.0005    0.0000 C   0  0  0  0  0  0  0  0  0  0  0  0
    1.3379    0.0556    0.0000 C   0  0  0  0  0  0  0  0  0  0  0  0
   -0.1093   -0.3389    0.0000 C   0  0  0  0  0  0  0  0  0  0  0  0
   -1.1745    0.7172    0.0000 C   0  0  0  0  0  0  0  0  0  0  0  0
   -2.6217    0.3228    0.0000 C   0  0  0  0  0  0  0  0  0  0  0  0
   -3.6869    1.3789    0.0000 C   0  0  0  0  0  0  0  0  0  0  0  0
   -5.1341    0.9844    0.0000 C   0  0  0  0  0  0  0  0  0  0  0  0
   -5.5161   -0.4661    0.0000 O   0  0  0  0  0  0  0  0  0  0  0  0
   -6.1993    2.0405    0.0000 O   0  0  0  0  0  0  0  0  0  0  0  0
   -7.6465    1.6461    0.0000 C   0  0  0  0  0  0  0  0  0  0  0  0
   -8.7117    2.7022    0.0000 C   0  0  0  0  0  0  0  0  0  0  0  0
   -8.3297    4.1527    0.0000 O   0  0  0  0  0  0  0  0  0  0  0  0
  -10.1589    2.3077    0.0000 C   0  0  0  0  0  0  0  0  0  0  0  0
  -11.2241    3.3638    0.0000 O   0  0  0  0  0  0  0  0  0  0  0  0
  -10.5409    0.8572    0.0000 C   0  0  0  0  0  0  0  0  0  0  0  0
  -11.9881    0.4628    0.0000 O   0  0  0  0  0  0  0  0  0  0  0  0
  -12.3702   -0.9878    0.0000 C   0  0  0  0  0  0  0  0  0  0  0  0
  -11.3049   -2.0439    0.0000 C   0  0  0  0  0  0  0  0  0  0  0  0
   -9.8577   -1.6494    0.0000 O   0  0  0  0  0  0  0  0  0  0  0  0
   -8.7925   -2.7055    0.0000 C   0  0  0  0  0  0  0  0  0  0  0  0
   -7.3453   -2.3111    0.0000 O   0  0  0  0  0  0  0  0  0  0  0  0
   -6.2801   -3.3672    0.0000 C   0  0  0  0  0  0  0  0  0  0  0  0
   -4.8329   -2.9727    0.0000 C   0  0  0  0  0  0  0  0  0  0  0  0
   -6.6621   -4.8177    0.0000 C   0  0  0  0  0  0  0  0  0  0  0  0
   -5.5969   -5.8738    0.0000 O   0  0  0  0  0  0  0  0  0  0  0  0
   -5.9789   -7.3244    0.0000 C   0  0  0  0  0  0  0  0  0  0  0  0
   -7.4261   -7.7188    0.0000 O   0  0  0  0  0  0  0  0  0  0  0  0
   -4.9137   -8.3805    0.0000 C   0  0  0  0  0  0  0  0  0  0  0  0
   -5.2957   -9.8310    0.0000 C   0  0  0  0  0  0  0  0  0  0  0  0
   -3.4665   -7.9860    0.0000 C   0  0  0  0  0  0  0  0  0  0  0  0
   -2.4013   -9.0421    0.0000 C   0  0  0  0  0  0  0  0  0  0  0  0
   -8.1093   -5.2122    0.0000 C   0  0  0  0  0  0  0  0  0  0  0  0
   -8.4913   -6.6627    0.0000 O   0  0  0  0  0  0  0  0  0  0  0  0
   -9.1745   -4.1561    0.0000 C   0  0  0  0  0  0  0  0  0  0  0  0
  -10.1866   -4.5701    0.0000 O   0  0  0  0  0  0  0  0  0  0  0  0
  -11.6870   -3.4944    0.0000 C   0  0  0  0  0  0  0  0  0  0  0  0
  -11.0101   -4.3532    0.0000 C   0  0  0  0  0  0  0  0  0  0  0  0
  -13.1342   -3.8889    0.0000 O   0  0  0  0  0  0  0  0  0  0  0  0
  -14.1994   -2.8328    0.0000 C   0  0  0  0  0  0  0  0  0  0  0  0
  -15.6466   -3.2272    0.0000 O   0  0  0  0  0  0  0  0  0  0  0  0
  -16.7118   -2.1711    0.0000 C   0  0  0  0  0  0  0  0  0  0  0  0
  -18.1590   -2.5656    0.0000 C   0  0  0  0  0  0  0  0  0  0  0  0
  -18.5009   -4.0261    0.0000 O   0  0  0  0  0  0  0  0  0  0  0  0
  -19.2985   -5.2964    0.0000 C   0  0  0  0  0  0  0  0  0  0  0  0
  -18.1767   -6.2923    0.0000 O   0  0  0  0  0  0  0  0  0  0  0  0
  -20.4653   -6.2390    0.0000 C   0  0  0  0  0  0  0  0  0  0  0  0
  -21.8750   -6.7516    0.0000 C   0  0  0  0  0  0  0  0  0  0  0  0
  -23.3748   -6.7787    0.0000 C   0  0  0  0  0  0  0  0  0  0  0  0
  -24.8021   -6.3174    0.0000 C   0  0  0  0  0  0  0  0  0  0  0  0
  -26.0023   -5.4176    0.0000 C   0  0  0  0  0  0  0  0  0  0  0  0
  -26.8452   -4.1769    0.0000 C   0  0  0  0  0  0  0  0  0  0  0  0
  -27.2397   -2.7297    0.0000 C   0  0  0  0  0  0  0  0  0  0  0  0
  -27.1428   -1.2328    0.0000 C   0  0  0  0  0  0  0  0  0  0  0  0
  -26.5652    0.1515    0.0000 C   0  0  0  0  0  0  0  0  0  0  0  0
  -25.5694    1.2733    0.0000 C   0  0  0  0  0  0  0  0  0  0  0  0
  -26.5120    2.4402    0.0000 C   0  0  0  0  0  0  0  0  0  0  0  0
  -27.9938    2.2073    0.0000 C   0  0  0  0  0  0  0  0  0  0  0  0
  -28.9363    3.3742    0.0000 C   0  0  0  0  0  0  0  0  0  0  0  0
  -30.4182    3.1413    0.0000 C   0  0  0  0  0  0  0  0  0  0  0  0
  -31.3607    4.3082    0.0000 C   0  0  0  0  0  0  0  0  0  0  0  0
  -24.2633    2.0109    0.0000 O   0  0  0  0  0  0  0  0  0  0  0  0
  -22.7885    2.2845    0.0000 C   0  0  0  0  0  0  0  0  0  0  0  0
  -23.3397    3.6796    0.0000 O   0  0  0  0  0  0  0  0  0  0  0  0
  -22.4072    4.8545    0.0000 C   0  0  0  0  0  0  0  0  0  0  0  0
  -22.9585    6.2495    0.0000 C   0  0  0  0  0  0  0  0  0  0  0  0
  -20.9235    4.6344    0.0000 C   0  0  0  0  0  0  0  0  0  0  0  0
  -19.9909    5.8093    0.0000 O   0  0  0  0  0  0  0  0  0  0  0  0
  -20.3722    3.2393    0.0000 C   0  0  0  0  0  0  0  0  0  0  0  0
  -18.8884    3.0192    0.0000 O   0  0  0  0  0  0  0  0  0  0  0  0
  -21.3047    2.0644    0.0000 C   0  0  0  0  0  0  0  0  0  0  0  0
  -19.9728    1.3744    0.0000 O   0  0  0  0  0  0  0  0  0  0  0  0
  -18.9371    0.2894    0.0000 C   0  0  0  0  0  0  0  0  0  0  0  0
  -17.3950    0.3355    0.0000 O   0  0  0  0  0  0  0  0  0  0  0  0
  -16.3298   -0.7206    0.0000 C   0  0  0  0  0  0  0  0  0  0  0  0
  -15.6342   -0.3311    0.0000 C   0  0  0  0  0  0  0  0  0  0  0  0
  -18.3098   -1.0732    0.0000 C   0  0  0  0  0  0  0  0  0  0  0  0
  -17.0951   -1.0468    0.0000 O   0  0  0  0  0  0  0  0  0  0  0  0
  -13.8174   -1.3822    0.0000 C   0  0  0  0  0  0  0  0  0  0  0  0
  -14.8826   -0.3261    0.0000 O   0  0  0  0  0  0  0  0  0  0  0  0
  -14.5006    1.1244    0.0000 C   0  0  0  0  0  0  0  0  0  0  0  0
  -13.0533    1.5189    0.0000 O   0  0  0  0  0  0  0  0  0  0  0  0
  -15.5658    2.1805    0.0000 C   0  0  0  0  0  0  0  0  0  0  0  0
  -15.1838    3.6311    0.0000 C   0  0  0  0  0  0  0  0  0  0  0  0
  -16.2490    4.6872    0.0000 C   0  0  0  0  0  0  0  0  0  0  0  0
  -15.8669    6.1377    0.0000 C   0  0  0  0  0  0  0  0  0  0  0  0
  -16.9321    7.1938    0.0000 C   0  0  0  0  0  0  0  0  0  0  0  0
  -16.5501    8.6443    0.0000 C   0  0  0  0  0  0  0  0  0  0  0  0
  -17.6153    9.7004    0.0000 C   0  0  0  0  0  0  0  0  0  0  0  0
  -17.2333   11.1510    0.0000 C   0  0  0  0  0  0  0  0  0  0  0  0
  -18.2985   12.2071    0.0000 C   0  0  0  0  0  0  0  0  0  0  0  0
  -17.9165   13.6576    0.0000 C   0  0  0  0  0  0  0  0  0  0  0  0
  -18.9817   14.7137    0.0000 C   0  0  0  0  0  0  0  0  0  0  0  0
   -9.4757   -0.1989    0.0000 O   0  0  0  0  0  0  0  0  0  0  0  0
   -8.0285    0.1955    0.0000 C   0  0  0  0  0  0  0  0  0  0  0  0
   -6.9633   -0.8606    0.0000 C   0  0  0  0  0  0  0  0  0  0  0  0
    7.7291   -6.2810    0.0000 O   0  0  0  0  0  0  0  0  0  0  0  0
    8.7943   -7.3371    0.0000 C   0  0  0  0  0  0  0  0  0  0  0  0
    8.4123   -8.7877    0.0000 C   0  0  0  0  0  0  0  0  0  0  0  0
   10.2416   -6.9427    0.0000 C   0  0  0  0  0  0  0  0  0  0  0  0
   11.3068   -7.9988    0.0000 O   0  0  0  0  0  0  0  0  0  0  0  0
   10.6236   -5.4921    0.0000 C   0  0  0  0  0  0  0  0  0  0  0  0
   12.0708   -5.0977    0.0000 O   0  0  0  0  0  0  0  0  0  0  0  0
   12.4528   -3.6472    0.0000 O   0  0  0  0  0  0  0  0  0  0  0  0
   13.9000   -3.2527    0.0000 C   0  0  0  0  0  0  0  0  0  0  0  0
   14.9652   -4.3088    0.0000 C   0  0  0  0  0  0  0  0  0  0  0  0
   15.0460    1.0989    0.0000 O   0  0  0  0  0  0  0  0  0  0  0  0
   15.4280    2.5495    0.0000 C   0  0  0  0  0  0  0  0  0  0  0  0
   14.3628    3.6056    0.0000 C   0  0  0  0  0  0  0  0  0  0  0  0
   16.8752    2.9439    0.0000 C   0  0  0  0  0  0  0  0  0  0  0  0
   17.2572    4.3944    0.0000 O   0  0  0  0  0  0  0  0  0  0  0  0
   18.7044    4.7889    0.0000 C   0  0  0  0  0  0  0  0  0  0  0  0
   19.7696    3.7328    0.0000 O   0  0  0  0  0  0  0  0  0  0  0  0
   21.2169    4.1272    0.0000 C   0  0  0  0  0  0  0  0  0  0  0  0
   22.4028    3.2088    0.0000 C   0  0  0  0  0  0  0  0  0  0  0  0
   21.5989    5.5778    0.0000 C   0  0  0  0  0  0  0  0  0  0  0  0
   23.0461    5.9722    0.0000 O   0  0  0  0  0  0  0  0  0  0  0  0
   23.4281    7.4228    0.0000 C   0  0  0  0  0  0  0  0  0  0  0  0
   22.3629    8.4789    0.0000 O   0  0  0  0  0  0  0  0  0  0  0  0
   24.8753    7.8172    0.0000 C   0  0  0  0  0  0  0  0  0  0  0  0
   25.2573    9.2677    0.0000 C   0  0  0  0  0  0  0  0  0  0  0  0
   25.9405    6.7611    0.0000 C   0  0  0  0  0  0  0  0  0  0  0  0
   27.3877    7.1555    0.0000 C   0  0  0  0  0  0  0  0  0  0  0  0
   20.5337    6.6339    0.0000 C   0  0  0  0  0  0  0  0  0  0  0  0
   20.9157    8.0844    0.0000 O   0  0  0  0  0  0  0  0  0  0  0  0
   19.0864    6.2394    0.0000 C   0  0  0  0  0  0  0  0  0  0  0  0
   18.0212    7.2955    0.0000 O   0  0  0  0  0  0  0  0  0  0  0  0
   17.9404    1.8878    0.0000 C   0  0  0  0  0  0  0  0  0  0  0  0
   19.3876    2.2822    0.0000 O   0  0  0  0  0  0  0  0  0  0  0  0
   20.4528    1.2261    0.0000 C   0  0  0  0  0  0  0  0  0  0  0  0
   20.0708   -0.2244    0.0000 O   0  0  0  0  0  0  0  0  0  0  0  0
   21.1360   -1.2805    0.0000 C   0  0  0  0  0  0  0  0  0  0  0  0
   20.7540   -2.7310    0.0000 C   0  0  0  0  0  0  0  0  0  0  0  0
   22.5832   -0.8861    0.0000 C   0  0  0  0  0  0  0  0  0  0  0  0
   23.3612   -2.1685    0.0000 O   0  0  0  0  0  0  0  0  0  0  0  0
   22.9652    0.5645    0.0000 C   0  0  0  0  0  0  0  0  0  0  0  0
   24.4125    0.9589    0.0000 O   0  0  0  0  0  0  0  0  0  0  0  0
   21.9000    1.6206    0.0000 C   0  0  0  0  0  0  0  0  0  0  0  0
   22.4560    3.0137    0.0000 O   0  0  0  0  0  0  0  0  0  0  0  0
  1  2  1  0
  2  3  1  0
  3  4  1  0
  4  5  1  0
  5  6  1  0
  6  7  1  0
  7  8  1  0
  8  9  1  0
  9 10  1  0
 10 11  1  0
 11 12  1  0
 12 13  2  0
 12 14  1  0
 15 14  1  1
 15 16  1  0
 16 17  1  6
 18 17  1  1
 18 19  1  0
 19 20  1  6
 19 21  1  0
 21 22  1  6
 21 23  1  0
 23 24  1  1
 25 24  1  6
 25 26  1  0
 26 27  1  1
 27 28  1  0
 28 29  1  6
 29 30  1  0
 30 31  1  0
 31 32  1  0
 32 33  1  0
 28 34  1  0
 34 35  1  0
 35 36  1  0
 36 37  1  0
 37 38  1  0
 38 39  1  0
 39 40  1  0
 40 41  1  0
 41 42  1  0
 42 43  1  0
 43 44  2  0
 43 45  1  0
 46 45  1  1
 46 47  1  0
 47 48  1  6
 47 49  1  0
 49 50  1  6
 49 51  1  0
 51 52  1  1
 53 52  1  6
 53 54  1  0
 54 55  1  1
 56 55  1  6
 56 57  1  0
 57 58  1  0
 58 59  1  1
 58 60  1  0
 60 61  1  1
 61 62  1  0
 62 63  2  0
 62 64  1  0
 64 65  1  1
 64 66  1  0
 66 67  1  0
 60 68  1  0
 68 69  1  1
 68 70  1  0
 70 71  1  1
 54 72  1  0
 72 73  1  6
 72 74  1  0
 74 75  1  0
 75 76  1  1
 77 76  1  6
 77 78  1  0
 78 79  1  1
 79 80  1  0
 80 81  2  0
 80 82  1  0
 82 83  1  0
 83 84  1  0
 84 85  1  0
 85 86  1  0
 86 87  1  0
 87 88  1  0
 88 89  1  0
 89 90  1  0
 90 91  1  0
 91 92  1  6
 92 93  1  0
 93 94  1  0
 94 95  1  0
 95 96  1  0
 91 97  1  0
 98 97  1  6
 98 99  1  0
 99100  1  0
100101  1  6
100102  1  0
102103  1  6
102104  1  0
104105  1  6
104106  1  0
106107  1  1
108107  1  6
108109  1  0
109110  1  0
110111  1  1
108112  1  0
112113  1  6
 75114  1  0
114115  1  6
115116  1  0
116117  2  0
116118  1  0
118119  1  0
119120  1  0
120121  1  0
121122  1  0
122123  1  0
123124  1  0
124125  1  0
125126  1  0
126127  1  0
127128  1  0
 51129  1  0
129130  1  0
130131  1  6
 26132  1  0
132133  1  0
133134  1  1
133135  1  0
135136  1  1
135137  1  0
137138  1  1
 23139  1  0
139140  1  0
140141  1  6
 16142  1  0
142143  1  0
143144  1  1
143145  1  0
145146  1  6
147146  1  1
147148  1  0
148149  1  0
149150  1  6
149151  1  0
151152  1  1
152153  1  0
153154  2  0
153155  1  0
155156  1  6
155157  1  0
157158  1  0
151159  1  0
159160  1  6
159161  1  0
161162  1  6
145163  1  0
163164  1  1
165164  1  1
165166  1  0
166167  1  0
167168  1  6
167169  1  0
169170  1  1
169171  1  0
171172  1  6
171173  1  0
173174  1  6
163 15  1  0
173165  1  0
140 18  1  0
161147  1  0
137 25  1  0
130 46  1  0
114 53  1  0
 70 56  1  0
110 77  1  0
112 78  1  0
106 98  1  0
M  END
>  <identifier>  (571) 
CNP0436822.1

>  <canonical_smiles>  (571) 
CCCCCCCCCCCC(=O)O[C@H]1[C@H](O[C@@H]2[C@@H](O)[C@@H](O)[C@H](O[C@H]3[C@H](O[C@@H](CCCCC)CCCCCCCCCC(=O)O[C@@H]4[C@@H](O)[C@@H](O)[C@H](O[C@@H]5[C@@H](O[C@@H]6O[C@@H](C)[C@@H](OC(=O)[C@H](C)CC)[C@@H](O)[C@H]6O)[C@H](C)O[C@@H](O[C@@H]6[C@H]7OC(=O)CCCCCCCCC[C@H](CCCCC)O[C@@H]8O[C@H](C)[C@H](O)[C@H](O)[C@H]8O[C@H](O[C@H]6C)[C@@H]7O)[C@@H]5OC(=O)CCCCCCCCCCC)O[C@H]4C)O[C@H](C)[C@H](O)[C@@H]3O)O[C@H]2C)O[C@@H](C)[C@H](O[C@@H]2O[C@@H](C)[C@H](OC(=O)[C@H](C)CC)[C@@H](O)[C@H]2O)[C@H]1O[C@@H]1O[C@@H](C)[C@H](O)[C@@H](O)[C@H]1O

>  <standard_inchi>  (571) 
InChI=1S/C126H220O48/c1-19-25-29-31-33-35-41-47-57-65-83(129)163-113-111(173-117-95(141)88(134)85(131)69(9)149-117)106(168-118-97(143)92(138)102(73(13)153-118)165-115(147)67(7)23-5)77(17)157-125(113)167-104-75(15)155-120(99(145)94(104)140)171-109-89(135)86(132)70(10)150-123(109)159-79(59-51-27-21-3)61-53-45-39-37-43-49-55-63-81(127)161-101-72(12)152-121(96(142)91(101)137)174-112-107(169-119-98(144)93(139)103(74(14)154-119)166-116(148)68(8)24-6)78(18)158-126(114(112)164-84(130)66-58-48-42-36-34-32-30-26-20-2)170-105-76(16)156-122-100(146)108(105)162-82(128)64-56-50-44-38-40-46-54-62-80(60-52-28-22-4)160-124-110(172-122)90(136)87(133)71(11)151-124/h67-80,85-114,117-126,131-146H,19-66H2,1-18H3/t67-,68-,69+,70-,71-,72+,73+,74+,75+,76+,77+,78+,79+,80+,85+,86+,87+,88-,89+,90+,91+,92+,93+,94+,95-,96-,97-,98-,99-,100-,101+,102+,103-,104+,105+,106+,107+,108+,109-,110-,111-,112-,113-,114-,117+,118+,119+,120+,121+,122+,123+,124+,125+,126+/m1/s1

>  <standard_inchi_key>  (571) 
CESKZPLPZZKMAU-QRTXVKLHSA-N

>  <name>  (571) 
nan

>  <iupac_name>  (571) 
[(2~{S},3~{R},4~{S},5~{R},6~{S})-6-[(2~{S},3~{S},4~{R},5~{R},6~{S})-3-[(2~{S},3~{R},4~{S},5~{S},6~{S})-3,4-dihydroxy-6-methyl-5-[(2~{R})-2-methylbutanoyl]oxy-tetrahydropyran-2-yl]oxy-5-dodecanoyloxy-2-methyl-6-[[(1~{S},3~{R},4~{S},5~{R},6~{R},8~{R},10~{S},22~{S},23~{S},24~{S},26~{R})-4,5,26-trihydroxy-6,24-dimethyl-20-oxo-10-pentyl-2,7,9,21,25-pentaoxatricyclo[20.3.1.0^{3,8}]hexacosan-23-yl]oxy]tetrahydropyran-4-yl]oxy-4,5-dihydroxy-2-methyl-tetrahydropyran-3-yl] (11~{S})-11-[(2~{R},3~{R},4~{S},5~{R},6~{R})-3-[(2~{S},3~{R},4~{S},5~{R},6~{S})-5-[(2~{S},3~{R},4~{R},5~{S},6~{S})-5-[(2~{S},3~{R},4~{S},5~{R},6~{S})-3,4-dihydroxy-6-methyl-5-[(2~{R})-2-methylbutanoyl]oxy-tetrahydropyran-2-yl]oxy-3-dodecanoyloxy-6-methyl-4-[(2~{S},3~{R},4~{R},5~{R},6~{S})-3,4,5-trihydroxy-6-methyl-tetrahydropyran-2-yl]oxy-tetrahydropyran-2-yl]oxy-3,4-dihydroxy-6-methyl-tetrahydropyran-2-yl]oxy-4,5-dihydroxy-6-methyl-tetrahydropyran-2-yl]oxyhexadecanoate

>  <annotation_level>  (571) 
5

>  <total_atom_count>  (571) 
394

>  <heavy_atom_count>  (571) 
174

>  <molecular_weight>  (571) 
2503.1

>  <exact_molecular_weight>  (571) 
2501.47741

>  <molecular_formula>  (571) 
C126H220O48

>  <alogp>  (571) 
10.66

>  <topological_polar_surface_area>  (571) 
666.08

>  <rotatable_bond_count>  (571) 
63

>  <hydrogen_bond_acceptors>  (571) 
48

>  <hydrogen_bond_donors>  (571) 
16

>  <hydrogen_bond_acceptors_lipinski>  (571) 
48

>  <hydrogen_bond_donors_lipinski>  (571) 
16

>  <lipinski_rule_of_five_violations>  (571) 
4

>  <aromatic_rings_count>  (571) 
0

>  <qed_drug_likeliness>  (571) 
0.02

>  <formal_charge>  (571) 
0

>  <fractioncsp3>  (571) 
0.95

>  <number_of_minimal_rings>  (571) 
11

>  <van_der_walls_volume>  (571) 
nan

>  <contains_sugar>  (571) 
True

>  <contains_ring_sugars>  (571) 
True

>  <contains_linear_sugars>  (571) 
False

>  <murcko_framework>  (571) 
O1CCCCC1OC2COC(OC3COC(OC4CCCOC4OCCCCCCCCCCCOC5COC(OC6CC(OCC6OC7OCCCC7)OC8COC9OC%10CCCOC%10OCCCCCCCCCCCOC8C9)CC5)CC3)CC2OC%11OCCCC%11

>  <np_likeness>  (571) 
0.70

>  <chemical_class>  (571) 
Carboxylic acids and derivatives

>  <chemical_sub_class>  (571) 
Hexacarboxylic acids and derivatives

>  <chemical_super_class>  (571) 
Organic acids and derivatives

>  <direct_parent_classification>  (571) 
Hexacarboxylic acids and derivatives

>  <np_classifier_pathway>  (571) 
Fatty acids

>  <np_classifier_superclass>  (571) 
Fatty acyls

>  <np_classifier_class>  (571) 
Resin glycosides

>  <np_classifier_is_glycoside>  (571) 
True

>  <organisms>  (571) 
Ipomoea batatas

>  <collections>  (571) 
BIOFACQUIM|Latin America dataset

>  <dois>  (571) 
10.1021/np500523w

>  <synonyms>  (571) 
Batatin XI

>  <cas>  (571) 
nan

$$$$

     RDKit          2D

 18 18  0  0  0  0  0  0  0  0999 V2000
    6.6195    1.1095    0.0000 C   0  0  0  0  0  0  0  0  0  0  0  0
    5.4564    0.1623    0.0000 C   0  0  0  0  0  0  0  0  0  0  0  0
    5.6952   -1.3186    0.0000 C   0  0  0  0  0  0  0  0  0  0  0  0
    4.0545    0.6960    0.0000 C   0  0  0  0  0  0  0  0  0  0  0  0
    2.8914   -0.2513    0.0000 C   0  0  0  0  0  0  0  0  0  0  0  0
    1.4896    0.2824    0.0000 C   0  0  0  0  0  0  0  0  0  0  0  0
    0.3265   -0.6648    0.0000 C   0  0  0  0  0  0  0  0  0  0  0  0
    0.5653   -2.1457    0.0000 C   0  0  0  0  0  0  0  0  0  0  0  0
   -1.0754   -0.1312    0.0000 C   0  0  0  0  0  0  0  0  0  0  0  0
   -2.2384   -1.0784    0.0000 C   0  0  0  0  0  0  0  0  0  0  0  0
   -1.9997   -2.5593    0.0000 O   0  0  0  0  0  0  0  0  0  0  0  0
   -3.6403   -0.5448    0.0000 C   0  0  0  0  0  0  0  0  0  0  0  0
   -4.8034   -1.4920    0.0000 O   0  0  0  0  0  0  0  0  0  0  0  0
   -3.8791    0.9361    0.0000 C   0  0  0  0  0  0  0  0  0  0  0  0
   -5.2809    1.4698    0.0000 C   0  0  0  0  0  0  0  0  0  0  0  0
   -2.7160    1.8833    0.0000 C   0  0  0  0  0  0  0  0  0  0  0  0
   -1.3141    1.3497    0.0000 C   0  0  0  0  0  0  0  0  0  0  0  0
   -0.1510    2.2969    0.0000 O   0  0  0  0  0  0  0  0  0  0  0  0
  1  2  1  0
  2  3  1  0
  2  4  2  0
  4  5  1  0
  5  6  1  0
  6  7  1  0
  7  8  1  1
  7  9  1  0
  9 10  2  0
 10 11  1  0
 10 12  1  0
 12 13  2  0
 12 14  1  0
 14 15  1  0
 14 16  2  0
 16 17  1  0
 17 18  2  0
 17  9  1  0
M  END
>  <identifier>  (572) 
CNP0278397.1

>  <canonical_smiles>  (572) 
CC(C)=CCC[C@@H](C)C1=C(O)C(=O)C(C)=CC1=O

>  <standard_inchi>  (572) 
InChI=1S/C15H20O3/c1-9(2)6-5-7-10(3)13-12(16)8-11(4)14(17)15(13)18/h6,8,10,18H,5,7H2,1-4H3/t10-/m1/s1

>  <standard_inchi_key>  (572) 
JZXORCGMYQZBBQ-SNVBAGLBSA-N

>  <name>  (572) 
Perezone

>  <iupac_name>  (572) 
2-[(1~{R})-1,5-dimethylhex-4-enyl]-3-hydroxy-5-methyl-1,4-benzoquinone

>  <annotation_level>  (572) 
5

>  <total_atom_count>  (572) 
38

>  <heavy_atom_count>  (572) 
18

>  <molecular_weight>  (572) 
248.32

>  <exact_molecular_weight>  (572) 
248.14124

>  <molecular_formula>  (572) 
C15H20O3

>  <alogp>  (572) 
3.28

>  <topological_polar_surface_area>  (572) 
54.37

>  <rotatable_bond_count>  (572) 
4

>  <hydrogen_bond_acceptors>  (572) 
3

>  <hydrogen_bond_donors>  (572) 
1

>  <hydrogen_bond_acceptors_lipinski>  (572) 
3

>  <hydrogen_bond_donors_lipinski>  (572) 
1

>  <lipinski_rule_of_five_violations>  (572) 
0

>  <aromatic_rings_count>  (572) 
0

>  <qed_drug_likeliness>  (572) 
0.61

>  <formal_charge>  (572) 
0

>  <fractioncsp3>  (572) 
0.47

>  <number_of_minimal_rings>  (572) 
1

>  <van_der_walls_volume>  (572) 
246.85

>  <contains_sugar>  (572) 
False

>  <contains_ring_sugars>  (572) 
False

>  <contains_linear_sugars>  (572) 
False

>  <murcko_framework>  (572) 
C1=CCC=CC1

>  <np_likeness>  (572) 
2.22

>  <chemical_class>  (572) 
Prenol lipids

>  <chemical_sub_class>  (572) 
Sesquiterpenoids

>  <chemical_super_class>  (572) 
Lipids and lipid-like molecules

>  <direct_parent_classification>  (572) 
Sesquiterpenoids

>  <np_classifier_pathway>  (572) 
Terpenoids

>  <np_classifier_superclass>  (572) 
Meroterpenoids

>  <np_classifier_class>  (572) 
Prenyl quinone meroterpenoids

>  <np_classifier_is_glycoside>  (572) 
False

>  <organisms>  (572) 
Acourtia thurberi|Bidens andicola|Coreopsis mutica|Jungia malvaefolia|Jungia spectabilis|Perezia carpholepis|Perezia spp.|Trixis piptzhuac

>  <collections>  (572) 
BIOFACQUIM|KNApSaCK|Latin America dataset|NPEdia|Super Natural II

>  <dois>  (572) 
10.1055/s-0042-119652

>  <synonyms>  (572) 
3600-95-1|L7YL69207Z|2|5-Cyclohexadiene-1|4-dione| 2-(1|5-dimethyl-4-hexenyl)-3-hydroxy-5-methyl-| (R)-|UNII-L7YL69207Z|PEREZONE MI|2|5-Cyclohexadiene-1|4-dione|2-(1R)-1|5-dimethyl-4-hexen-1-yl-3-hydroxy-5-methyl-|SCHEMBL3609795|CHEMBL2071234|DTXSID50877865|JZXORCGMYQZBBQ-SNVBAGLBSA-N|3-hydroxy-5-methyl-2-(2R)-6-methylhept-5-en-2-ylcyclohexa-2|5-diene-1|4-dione|Q27282818|2-(1|5-Dimethyl-4-hexenyl)-3-hydroxy-5-methylbenzo-1|4-quinone #|p-Benzoquinone| 2-(1|5-dimethyl-4-hexenyl)-3-hydroxy-5-methyl-|2-(1|5-DIMETHYL-4-HEXENYL)-3-HYDROXY-5-METHYL-P-BENZOQUINONE| PIPITZAHOIC ACID|2|5-CYCLOHEXADIENE-1|4-DIONE| 2-((1R)-1|5-DIMETHYL-4-HEXEN-1-YL)-3-HYDROXY-5-METHYL-|2-((1R)-1|5-DIMETHYL-4-HEXEN-1-YL)-3-HYDROXY-5-METHYL-2|5-CYCLOHEXADIENE-1|4-DIONE|Perezone

>  <cas>  (572) 
3600-95-1

$$$$

     RDKit          2D

 18 20  0  0  0  0  0  0  0  0999 V2000
    2.4294   -2.6385    0.0000 C   0  0  0  0  0  0  0  0  0  0  0  0
    1.4584   -1.4952    0.0000 C   0  0  0  0  0  0  0  0  0  0  0  0
    1.9631   -0.0826    0.0000 C   0  0  0  0  0  0  0  0  0  0  0  0
    3.4387    0.1866    0.0000 O   0  0  0  0  0  0  0  0  0  0  0  0
    0.9921    1.0607    0.0000 C   0  0  0  0  0  0  0  0  0  0  0  0
    1.4967    2.4732    0.0000 O   0  0  0  0  0  0  0  0  0  0  0  0
   -0.4529    0.6232    0.0000 C   0  0  0  0  0  0  0  0  0  0  0  0
    0.6323   -0.4124    0.0000 C   0  0  0  0  0  0  0  0  0  0  0  0
    1.3586   -0.0838    0.0000 O   0  0  0  0  0  0  0  0  0  0  0  0
   -0.0172   -1.7644    0.0000 C   0  0  0  0  0  0  0  0  0  0  0  0
   -1.5038   -1.5645    0.0000 C   0  0  0  0  0  0  0  0  0  0  0  0
   -1.5473   -3.0639    0.0000 C   0  0  0  0  0  0  0  0  0  0  0  0
   -2.9995   -1.6780    0.0000 C   0  0  0  0  0  0  0  0  0  0  0  0
   -1.7731   -0.0889    0.0000 C   0  0  0  0  0  0  0  0  0  0  0  0
   -2.8582    0.9467    0.0000 C   0  0  0  0  0  0  0  0  0  0  0  0
   -2.2087    2.2988    0.0000 C   0  0  0  0  0  0  0  0  0  0  0  0
   -0.7221    2.0988    0.0000 C   0  0  0  0  0  0  0  0  0  0  0  0
    0.3135    3.1840    0.0000 C   0  0  0  0  0  0  0  0  0  0  0  0
  1  2  1  0
  2  3  2  0
  3  4  1  0
  3  5  1  0
  5  6  2  0
  7  5  1  1
  7  8  1  0
  8  9  2  0
  8 10  1  0
 10 11  1  1
 11 12  1  0
 11 13  1  0
 11 14  1  0
 14 15  1  6
 15 16  1  0
 16 17  1  0
 17 18  1  1
 10  2  1  0
 14  7  1  0
 17  7  1  0
M  END
>  <identifier>  (573) 
CNP0192603.1

>  <canonical_smiles>  (573) 
CC1=C(O)C(=O)[C@@]23C(=O)[C@@H]1C(C)(C)[C@@H]2CC[C@H]3C

>  <standard_inchi>  (573) 
InChI=1S/C15H20O3/c1-7-5-6-9-14(3,4)10-8(2)11(16)13(18)15(7,9)12(10)17/h7,9-10,16H,5-6H2,1-4H3/t7-,9+,10-,15-/m1/s1

>  <standard_inchi_key>  (573) 
JSYQPAIDLVPBDA-RAIZXLCNSA-N

>  <name>  (573) 
2211-21-4

>  <iupac_name>  (573) 
(1~{R},2~{R},5~{S},7~{R})-9-hydroxy-2,6,6,8-tetramethyl-tricyclo[5.3.1.0^{1,5}]undec-8-ene-10,11-dione

>  <annotation_level>  (573) 
5

>  <total_atom_count>  (573) 
38

>  <heavy_atom_count>  (573) 
18

>  <molecular_weight>  (573) 
248.32

>  <exact_molecular_weight>  (573) 
248.14124

>  <molecular_formula>  (573) 
C15H20O3

>  <alogp>  (573) 
2.66

>  <topological_polar_surface_area>  (573) 
54.37

>  <rotatable_bond_count>  (573) 
0

>  <hydrogen_bond_acceptors>  (573) 
3

>  <hydrogen_bond_donors>  (573) 
1

>  <hydrogen_bond_acceptors_lipinski>  (573) 
3

>  <hydrogen_bond_donors_lipinski>  (573) 
1

>  <lipinski_rule_of_five_violations>  (573) 
0

>  <aromatic_rings_count>  (573) 
0

>  <qed_drug_likeliness>  (573) 
0.67

>  <formal_charge>  (573) 
0

>  <fractioncsp3>  (573) 
0.73

>  <number_of_minimal_rings>  (573) 
3

>  <van_der_walls_volume>  (573) 
234.46

>  <contains_sugar>  (573) 
False

>  <contains_ring_sugars>  (573) 
False

>  <contains_linear_sugars>  (573) 
False

>  <murcko_framework>  (573) 
C1=CC2CC3CCCC3(C1)C2

>  <np_likeness>  (573) 
1.72

>  <chemical_class>  (573) 
Prenol lipids

>  <chemical_sub_class>  (573) 
Sesquiterpenoids

>  <chemical_super_class>  (573) 
Lipids and lipid-like molecules

>  <direct_parent_classification>  (573) 
Cedrane and isocedrane sesquiterpenoids

>  <np_classifier_pathway>  (573) 
Terpenoids

>  <np_classifier_superclass>  (573) 
Sesquiterpenoids

>  <np_classifier_class>  (573) 
Cedrane and Isocedrane sesquiterpenoids

>  <np_classifier_is_glycoside>  (573) 
False

>  <organisms>  (573) 
Acourtia thurberi|Antillogorgia rigida|Perezia carpholepis|Perezia cuernavacana

>  <collections>  (573) 
BIOFACQUIM|CMNPD|KNApSaCK|Latin America dataset|Super Natural II

>  <dois>  (573) 
10.1039/c5np00156k|10.1055/s-0042-119652

>  <synonyms>  (573) 
(1R|2R|5S|7R)-9-Hydroxy-2|6|6|8-tetramethyltricyclo5.3.1.01|5undec-8-ene-10|11-dione|beta-Pipitzol|4H-3a|7-Methanoazulene-4|9-dione| 1|2|3|7|8|8a-hexahydro-5-hydroxy-3|6|8|8-tetramethyl-| (3R-(3alpha|3aalpha|7alpha|8abeta))-|a-Pipitzol|alpha-Pipitzol|\u03b1-pipitzol

>  <cas>  (573) 
nan

$$$$

     RDKit          2D

 18 20  0  0  0  0  0  0  0  0999 V2000
    2.4294   -2.6385    0.0000 C   0  0  0  0  0  0  0  0  0  0  0  0
    1.4584   -1.4952    0.0000 C   0  0  0  0  0  0  0  0  0  0  0  0
    1.9631   -0.0826    0.0000 C   0  0  0  0  0  0  0  0  0  0  0  0
    3.4387    0.1866    0.0000 O   0  0  0  0  0  0  0  0  0  0  0  0
    0.9921    1.0607    0.0000 C   0  0  0  0  0  0  0  0  0  0  0  0
    1.4967    2.4732    0.0000 O   0  0  0  0  0  0  0  0  0  0  0  0
   -0.4529    0.6232    0.0000 C   0  0  0  0  0  0  0  0  0  0  0  0
    0.6323   -0.4124    0.0000 C   0  0  0  0  0  0  0  0  0  0  0  0
    1.3586   -0.0838    0.0000 O   0  0  0  0  0  0  0  0  0  0  0  0
   -0.0172   -1.7644    0.0000 C   0  0  0  0  0  0  0  0  0  0  0  0
   -1.5038   -1.5645    0.0000 C   0  0  0  0  0  0  0  0  0  0  0  0
   -1.5473   -3.0639    0.0000 C   0  0  0  0  0  0  0  0  0  0  0  0
   -2.9995   -1.6780    0.0000 C   0  0  0  0  0  0  0  0  0  0  0  0
   -1.7731   -0.0889    0.0000 C   0  0  0  0  0  0  0  0  0  0  0  0
   -2.8582    0.9467    0.0000 C   0  0  0  0  0  0  0  0  0  0  0  0
   -2.2087    2.2988    0.0000 C   0  0  0  0  0  0  0  0  0  0  0  0
   -0.7221    2.0988    0.0000 C   0  0  0  0  0  0  0  0  0  0  0  0
    0.3135    3.1840    0.0000 C   0  0  0  0  0  0  0  0  0  0  0  0
  1  2  1  0
  2  3  2  0
  3  4  1  0
  3  5  1  0
  5  6  2  0
  7  5  1  6
  7  8  1  0
  8  9  2  0
  8 10  1  0
 10 11  1  6
 11 12  1  0
 11 13  1  0
 11 14  1  0
 14 15  1  1
 15 16  1  0
 16 17  1  0
 17 18  1  1
 10  2  1  0
 14  7  1  0
 17  7  1  0
M  END
>  <identifier>  (574) 
CNP0192603.2

>  <canonical_smiles>  (574) 
CC1=C(O)C(=O)[C@]23C(=O)[C@H]1C(C)(C)[C@H]2CC[C@H]3C

>  <standard_inchi>  (574) 
InChI=1S/C15H20O3/c1-7-5-6-9-14(3,4)10-8(2)11(16)13(18)15(7,9)12(10)17/h7,9-10,16H,5-6H2,1-4H3/t7-,9-,10+,15+/m1/s1

>  <standard_inchi_key>  (574) 
JSYQPAIDLVPBDA-JWUPAISJSA-N

>  <name>  (574) 
nan

>  <iupac_name>  (574) 
(1~{S},2~{R},5~{R},7~{S})-9-hydroxy-2,6,6,8-tetramethyl-tricyclo[5.3.1.0^{1,5}]undec-8-ene-10,11-dione

>  <annotation_level>  (574) 
5

>  <total_atom_count>  (574) 
38

>  <heavy_atom_count>  (574) 
18

>  <molecular_weight>  (574) 
248.32

>  <exact_molecular_weight>  (574) 
248.14124

>  <molecular_formula>  (574) 
C15H20O3

>  <alogp>  (574) 
2.66

>  <topological_polar_surface_area>  (574) 
54.37

>  <rotatable_bond_count>  (574) 
0

>  <hydrogen_bond_acceptors>  (574) 
3

>  <hydrogen_bond_donors>  (574) 
1

>  <hydrogen_bond_acceptors_lipinski>  (574) 
3

>  <hydrogen_bond_donors_lipinski>  (574) 
1

>  <lipinski_rule_of_five_violations>  (574) 
0

>  <aromatic_rings_count>  (574) 
0

>  <qed_drug_likeliness>  (574) 
0.67

>  <formal_charge>  (574) 
0

>  <fractioncsp3>  (574) 
0.73

>  <number_of_minimal_rings>  (574) 
3

>  <van_der_walls_volume>  (574) 
234.10

>  <contains_sugar>  (574) 
False

>  <contains_ring_sugars>  (574) 
False

>  <contains_linear_sugars>  (574) 
False

>  <murcko_framework>  (574) 
C1=CC2CC3CCCC3(C1)C2

>  <np_likeness>  (574) 
1.72

>  <chemical_class>  (574) 
Prenol lipids

>  <chemical_sub_class>  (574) 
Sesquiterpenoids

>  <chemical_super_class>  (574) 
Lipids and lipid-like molecules

>  <direct_parent_classification>  (574) 
Cedrane and isocedrane sesquiterpenoids

>  <np_classifier_pathway>  (574) 
Terpenoids

>  <np_classifier_superclass>  (574) 
Sesquiterpenoids

>  <np_classifier_class>  (574) 
Cedrane and Isocedrane sesquiterpenoids

>  <np_classifier_is_glycoside>  (574) 
False

>  <organisms>  (574) 
Acourtia thurberi|Antillogorgia rigida

>  <collections>  (574) 
BIOFACQUIM|CMNPD|Latin America dataset|Super Natural II

>  <dois>  (574) 
10.1039/c5np00156k|10.1055/s-0042-119652

>  <synonyms>  (574) 
b-Pipitzol|\u03b2-pipitzol

>  <cas>  (574) 
nan

$$$$

     RDKit          2D

 26 28  0  0  0  0  0  0  0  0999 V2000
   -6.9155   -0.7533    0.0000 C   0  0  0  0  0  0  0  0  0  0  0  0
   -5.4748   -1.1707    0.0000 O   0  0  0  0  0  0  0  0  0  0  0  0
   -4.3929   -0.1317    0.0000 C   0  0  0  0  0  0  0  0  0  0  0  0
   -4.7517    1.3247    0.0000 C   0  0  0  0  0  0  0  0  0  0  0  0
   -3.6699    2.3637    0.0000 C   0  0  0  0  0  0  0  0  0  0  0  0
   -4.0287    3.8202    0.0000 O   0  0  0  0  0  0  0  0  0  0  0  0
   -2.2291    1.9463    0.0000 O   0  0  0  0  0  0  0  0  0  0  0  0
   -1.8702    0.4899    0.0000 C   0  0  0  0  0  0  0  0  0  0  0  0
   -0.4295    0.0724    0.0000 C   0  0  0  0  0  0  0  0  0  0  0  0
    0.6524    1.1114    0.0000 O   0  0  0  0  0  0  0  0  0  0  0  0
    2.0931    0.6940    0.0000 C   0  0  0  0  0  0  0  0  0  0  0  0
    2.4520   -0.7624    0.0000 O   0  0  0  0  0  0  0  0  0  0  0  0
    3.8927   -1.1799    0.0000 C   0  0  0  0  0  0  0  0  0  0  0  0
    4.2516   -2.6363    0.0000 C   0  0  0  0  0  0  0  0  0  0  0  0
    3.1697   -3.6753    0.0000 O   0  0  0  0  0  0  0  0  0  0  0  0
    4.9746   -0.1409    0.0000 C   0  0  0  0  0  0  0  0  0  0  0  0
    6.4154   -0.5583    0.0000 O   0  0  0  0  0  0  0  0  0  0  0  0
    4.6158    1.3156    0.0000 C   0  0  0  0  0  0  0  0  0  0  0  0
    5.6976    2.3546    0.0000 O   0  0  0  0  0  0  0  0  0  0  0  0
    3.1750    1.7330    0.0000 C   0  0  0  0  0  0  0  0  0  0  0  0
    2.8161    3.1894    0.0000 O   0  0  0  0  0  0  0  0  0  0  0  0
   -0.0706   -1.3840    0.0000 C   0  0  0  0  0  0  0  0  0  0  0  0
   -1.1525   -2.4230    0.0000 C   0  0  0  0  0  0  0  0  0  0  0  0
   -2.5933   -2.0056    0.0000 C   0  0  0  0  0  0  0  0  0  0  0  0
   -3.6751   -3.0446    0.0000 C   0  0  0  0  0  0  0  0  0  0  0  0
   -2.9521   -0.5491    0.0000 C   0  0  0  0  0  0  0  0  0  0  0  0
  1  2  1  0
  2  3  1  0
  3  4  2  0
  4  5  1  0
  5  6  2  0
  5  7  1  0
  7  8  1  0
  8  9  2  0
  9 10  1  0
 11 10  1  1
 11 12  1  0
 12 13  1  0
 13 14  1  1
 14 15  1  0
 13 16  1  0
 16 17  1  6
 16 18  1  0
 18 19  1  1
 18 20  1  0
 20 21  1  6
  9 22  1  0
 22 23  2  0
 23 24  1  0
 24 25  1  0
 24 26  2  0
 26  3  1  0
 26  8  1  0
 20 11  1  0
M  END
>  <identifier>  (575) 
CNP0214272.1

>  <canonical_smiles>  (575) 
COC1=CC(=O)OC2=C(O[C@@H]3O[C@H](CO)[C@@H](O)[C@H](O)[C@H]3O)C=CC(C)=C12

>  <standard_inchi>  (575) 
InChI=1S/C17H20O9/c1-7-3-4-8(16-12(7)9(23-2)5-11(19)26-16)24-17-15(22)14(21)13(20)10(6-18)25-17/h3-5,10,13-15,17-18,20-22H,6H2,1-2H3/t10-,13-,14+,15-,17-/m1/s1

>  <standard_inchi_key>  (575) 
SCDGKJFOGSRPQB-JGZYSILTSA-N

>  <name>  (575) 
8beta-d-glucopyranosyloxy-4-methoxy-5-methyl-coumarin

>  <iupac_name>  (575) 
4-methoxy-5-methyl-8-[(2~{S},3~{R},4~{S},5~{S},6~{R})-3,4,5-trihydroxy-6-(hydroxymethyl)tetrahydropyran-2-yl]oxy-chromen-2-one

>  <annotation_level>  (575) 
5

>  <total_atom_count>  (575) 
46

>  <heavy_atom_count>  (575) 
26

>  <molecular_weight>  (575) 
368.34

>  <exact_molecular_weight>  (575) 
368.11073

>  <molecular_formula>  (575) 
C17H20O9

>  <alogp>  (575) 
-0.71

>  <topological_polar_surface_area>  (575) 
138.82

>  <rotatable_bond_count>  (575) 
4

>  <hydrogen_bond_acceptors>  (575) 
9

>  <hydrogen_bond_donors>  (575) 
4

>  <hydrogen_bond_acceptors_lipinski>  (575) 
9

>  <hydrogen_bond_donors_lipinski>  (575) 
4

>  <lipinski_rule_of_five_violations>  (575) 
0

>  <aromatic_rings_count>  (575) 
2

>  <qed_drug_likeliness>  (575) 
0.52

>  <formal_charge>  (575) 
0

>  <fractioncsp3>  (575) 
0.47

>  <number_of_minimal_rings>  (575) 
3

>  <van_der_walls_volume>  (575) 
307.76

>  <contains_sugar>  (575) 
True

>  <contains_ring_sugars>  (575) 
True

>  <contains_linear_sugars>  (575) 
False

>  <murcko_framework>  (575) 
O1c2c(OC3OCCCC3)cccc2C=CC1

>  <np_likeness>  (575) 
1.69

>  <chemical_class>  (575) 
Coumarins and derivatives

>  <chemical_sub_class>  (575) 
Coumarin glycosides

>  <chemical_super_class>  (575) 
Phenylpropanoids and polyketides

>  <direct_parent_classification>  (575) 
Coumarin glycosides

>  <np_classifier_pathway>  (575) 
Shikimates and Phenylpropanoids

>  <np_classifier_superclass>  (575) 
Coumarins

>  <np_classifier_class>  (575) 
Simple coumarins

>  <np_classifier_is_glycoside>  (575) 
True

>  <organisms>  (575) 
Acourtia thurberi

>  <collections>  (575) 
BIOFACQUIM|Latin America dataset|Super Natural II

>  <dois>  (575) 
10.1055/s-0042-119652

>  <synonyms>  (575) 
8-b-D-glucopyranosyloxy-4-methoxy5-methyl-coumarin

>  <cas>  (575) 
nan

$$$$

     RDKit          2D

 13 13  0  0  0  0  0  0  0  0999 V2000
    3.6633   -0.0000    0.0000 C   0  0  0  0  0  0  0  0  0  0  0  0
    2.5295   -0.9820    0.0000 O   0  0  0  0  0  0  0  0  0  0  0  0
    1.1121   -0.4910    0.0000 C   0  0  0  0  0  0  0  0  0  0  0  0
   -0.0218   -1.4730    0.0000 C   0  0  0  0  0  0  0  0  0  0  0  0
    0.2617   -2.9459    0.0000 O   0  0  0  0  0  0  0  0  0  0  0  0
   -1.4392   -0.9820    0.0000 C   0  0  0  0  0  0  0  0  0  0  0  0
   -2.5731   -1.9640    0.0000 O   0  0  0  0  0  0  0  0  0  0  0  0
   -1.7226    0.4910    0.0000 C   0  0  0  0  0  0  0  0  0  0  0  0
   -3.1400    0.9820    0.0000 O   0  0  0  0  0  0  0  0  0  0  0  0
   -0.5888    1.4730    0.0000 C   0  0  0  0  0  0  0  0  0  0  0  0
   -0.8722    2.9459    0.0000 C   0  0  0  0  0  0  0  0  0  0  0  0
    0.8286    0.9820    0.0000 C   0  0  0  0  0  0  0  0  0  0  0  0
    1.9625    1.9640    0.0000 O   0  0  0  0  0  0  0  0  0  0  0  0
  1  2  1  0
  2  3  1  0
  3  4  2  0
  4  5  1  0
  4  6  1  0
  6  7  2  0
  6  8  1  0
  8  9  1  0
  8 10  2  0
 10 11  1  0
 10 12  1  0
 12 13  2  0
 12  3  1  0
M  END
>  <identifier>  (576) 
CNP0354268.0

>  <canonical_smiles>  (576) 
COC1=C(O)C(=O)C(O)=C(C)C1=O

>  <standard_inchi>  (576) 
InChI=1S/C8H8O5/c1-3-4(9)6(11)7(12)8(13-2)5(3)10/h9,12H,1-2H3

>  <standard_inchi_key>  (576) 
OXXPMFLZLUGGPV-UHFFFAOYSA-N

>  <name>  (576) 
Fumiquinone B

>  <iupac_name>  (576) 
2,6-dihydroxy-3-methoxy-5-methyl-1,4-benzoquinone

>  <annotation_level>  (576) 
5

>  <total_atom_count>  (576) 
21

>  <heavy_atom_count>  (576) 
13

>  <molecular_weight>  (576) 
184.15

>  <exact_molecular_weight>  (576) 
184.03717

>  <molecular_formula>  (576) 
C8H8O5

>  <alogp>  (576) 
0.39

>  <topological_polar_surface_area>  (576) 
83.83

>  <rotatable_bond_count>  (576) 
1

>  <hydrogen_bond_acceptors>  (576) 
5

>  <hydrogen_bond_donors>  (576) 
2

>  <hydrogen_bond_acceptors_lipinski>  (576) 
5

>  <hydrogen_bond_donors_lipinski>  (576) 
2

>  <lipinski_rule_of_five_violations>  (576) 
0

>  <aromatic_rings_count>  (576) 
0

>  <qed_drug_likeliness>  (576) 
0.58

>  <formal_charge>  (576) 
0

>  <fractioncsp3>  (576) 
0.25

>  <number_of_minimal_rings>  (576) 
1

>  <van_der_walls_volume>  (576) 
155.42

>  <contains_sugar>  (576) 
False

>  <contains_ring_sugars>  (576) 
False

>  <contains_linear_sugars>  (576) 
False

>  <murcko_framework>  (576) 
C1=CCC=CC1

>  <np_likeness>  (576) 
1.94

>  <chemical_class>  (576) 
Prenol lipids

>  <chemical_sub_class>  (576) 
Quinone and hydroquinone lipids

>  <chemical_super_class>  (576) 
Lipids and lipid-like molecules

>  <direct_parent_classification>  (576) 
Ubiquinones

>  <np_classifier_pathway>  (576) 
Polyketides

>  <np_classifier_superclass>  (576) 
Aromatic polyketides

>  <np_classifier_class>  (576) 
Benzoquinones

>  <np_classifier_is_glycoside>  (576) 
False

>  <organisms>  (576) 
Aspergillus fumigatus|Xylaria feejeensis

>  <collections>  (576) 
BIOFACQUIM|EMNPD|Latin America dataset|NPAtlas|Super Natural II

>  <dois>  (576) 
10.1021/acs.jafc.6b01111|10.1271/bbb.70110

>  <synonyms>  (576) 
CHEBI:225627|2|6-dihydroxy-3-methoxy-5-methylcyclohexa-2|5-diene-1|4-dione|Fumiquinone B

>  <cas>  (576) 
nan

$$$$

     RDKit          2D

 29 33  0  0  0  0  0  0  0  0999 V2000
   -3.2970   -0.8361    0.0000 C   0  0  0  0  0  0  0  0  0  0  0  0
   -1.8019   -0.9577    0.0000 N   0  0  0  0  0  0  0  0  0  0  0  0
   -1.2627   -2.3574    0.0000 C   0  0  0  0  0  0  0  0  0  0  0  0
   -2.2899   -3.4505    0.0000 O   0  0  0  0  0  0  0  0  0  0  0  0
    0.1678   -2.8086    0.0000 C   0  0  0  0  0  0  0  0  0  0  0  0
    0.2705   -4.3050    0.0000 C   0  0  0  0  0  0  0  0  0  0  0  0
    1.6178   -4.9644    0.0000 C   0  0  0  0  0  0  0  0  0  0  0  0
    2.8625   -4.1272    0.0000 C   0  0  0  0  0  0  0  0  0  0  0  0
    2.7598   -2.6307    0.0000 C   0  0  0  0  0  0  0  0  0  0  0  0
    1.4125   -1.9714    0.0000 C   0  0  0  0  0  0  0  0  0  0  0  0
    1.5340   -0.4763    0.0000 N   0  0  0  0  0  0  0  0  0  0  0  0
    0.4409    0.5508    0.0000 C   0  0  0  0  0  0  0  0  0  0  0  0
    0.7839    2.0111    0.0000 N   0  0  0  0  0  0  0  0  0  0  0  0
    2.2200    2.4442    0.0000 C   0  0  0  0  0  0  0  0  0  0  0  0
    2.5630    3.9044    0.0000 C   0  0  0  0  0  0  0  0  0  0  0  0
    3.9991    4.3375    0.0000 C   0  0  0  0  0  0  0  0  0  0  0  0
    5.0922    3.3104    0.0000 C   0  0  0  0  0  0  0  0  0  0  0  0
    4.7492    1.8501    0.0000 C   0  0  0  0  0  0  0  0  0  0  0  0
    3.3131    1.4170    0.0000 C   0  0  0  0  0  0  0  0  0  0  0  0
    2.9701   -0.0432    0.0000 C   0  0  0  0  0  0  0  0  0  0  0  0
    4.0632   -1.0704    0.0000 O   0  0  0  0  0  0  0  0  0  0  0  0
   -1.0438    0.3366    0.0000 C   0  0  0  0  0  0  0  0  0  0  0  0
   -1.8809    1.5813    0.0000 C   0  0  0  0  0  0  0  0  0  0  0  0
   -3.3774    1.4786    0.0000 C   0  0  0  0  0  0  0  0  0  0  0  0
   -4.2145    2.7233    0.0000 C   0  0  0  0  0  0  0  0  0  0  0  0
   -5.7110    2.6206    0.0000 C   0  0  0  0  0  0  0  0  0  0  0  0
   -6.3704    1.2733    0.0000 C   0  0  0  0  0  0  0  0  0  0  0  0
   -5.5332    0.0286    0.0000 C   0  0  0  0  0  0  0  0  0  0  0  0
   -4.0367    0.1313    0.0000 C   0  0  0  0  0  0  0  0  0  0  0  0
  1  2  1  0
  2  3  1  0
  3  4  2  0
  3  5  1  0
  5  6  2  0
  6  7  1  0
  7  8  2  0
  8  9  1  0
  9 10  2  0
 10 11  1  0
 11 12  1  0
 12 13  2  0
 13 14  1  0
 14 15  2  0
 15 16  1  0
 16 17  2  0
 17 18  1  0
 18 19  2  0
 19 20  1  0
 20 21  2  0
 12 22  1  0
 22 23  1  1
 23 24  1  0
 24 25  2  0
 25 26  1  0
 26 27  2  0
 27 28  1  0
 28 29  2  0
 22  2  1  0
 29 24  1  0
 10  5  1  0
 20 11  1  0
 19 14  1  0
M  END
>  <identifier>  (577) 
CNP0280218.1

>  <canonical_smiles>  (577) 
CN1C(=O)C2=CC=CC=C2N2C(=NC3=CC=CC=C3C2=O)[C@@H]1CC1=CC=CC=C1

>  <standard_inchi>  (577) 
InChI=1S/C24H19N3O2/c1-26-21(15-16-9-3-2-4-10-16)22-25-19-13-7-5-11-17(19)24(29)27(22)20-14-8-6-12-18(20)23(26)28/h2-14,21H,15H2,1H3/t21-/m0/s1

>  <standard_inchi_key>  (577) 
YYWUABJYAOCACI-NRFANRHFSA-N

>  <name>  (577) 
Benzomalvin-A

>  <iupac_name>  (577) 
(7~{S})-7-benzyl-6-methyl-7~{H}-quinazolino[3,2-a][1,4]benzodiazepine-5,13-dione

>  <annotation_level>  (577) 
5

>  <total_atom_count>  (577) 
48

>  <heavy_atom_count>  (577) 
29

>  <molecular_weight>  (577) 
381.44

>  <exact_molecular_weight>  (577) 
381.14773

>  <molecular_formula>  (577) 
C24H19N3O2

>  <alogp>  (577) 
3.76

>  <topological_polar_surface_area>  (577) 
55.20

>  <rotatable_bond_count>  (577) 
2

>  <hydrogen_bond_acceptors>  (577) 
4

>  <hydrogen_bond_donors>  (577) 
0

>  <hydrogen_bond_acceptors_lipinski>  (577) 
4

>  <hydrogen_bond_donors_lipinski>  (577) 
0

>  <lipinski_rule_of_five_violations>  (577) 
0

>  <aromatic_rings_count>  (577) 
4

>  <qed_drug_likeliness>  (577) 
0.53

>  <formal_charge>  (577) 
0

>  <fractioncsp3>  (577) 
0.13

>  <number_of_minimal_rings>  (577) 
5

>  <van_der_walls_volume>  (577) 
334.38

>  <contains_sugar>  (577) 
False

>  <contains_ring_sugars>  (577) 
False

>  <contains_linear_sugars>  (577) 
False

>  <murcko_framework>  (577) 
N=1c2ccccc2CN3c4ccccc4CNC(C13)Cc5ccccc5

>  <np_likeness>  (577) 
-0.10

>  <chemical_class>  (577) 
Pyrimidodiazepines

>  <chemical_sub_class>  (577) 
Pyrimidodiazepines

>  <chemical_super_class>  (577) 
Organoheterocyclic compounds

>  <direct_parent_classification>  (577) 
Pyrimidodiazepines

>  <np_classifier_pathway>  (577) 
Alkaloids

>  <np_classifier_superclass>  (577) 
Anthranilic acid alkaloids

>  <np_classifier_class>  (577) 
Benzodiazepine alkaloids

>  <np_classifier_is_glycoside>  (577) 
False

>  <organisms>  (577) 
Penicillium sp.|Penicillium spathulatum B35

>  <collections>  (577) 
BIOFACQUIM|Latin America dataset|NPAtlas|Super Natural II

>  <dois>  (577) 
10.1055/s-0042-111393|10.7164/antibiotics.47.515

>  <synonyms>  (577) 
Benzomalvin D|Benzomalvin A_120259|CHEBI:200783|(7S)-7-benzyl-6-methyl-7H-quinazolino3|2-a1|4benzodiazepine-5|13-dione

>  <cas>  (577) 
nan

$$$$

     RDKit          2D

 20 22  0  0  0  0  0  0  0  0999 V2000
   -4.0260   -3.0072    0.0000 C   0  0  0  0  0  0  0  0  0  0  0  0
   -2.9265   -1.9869    0.0000 C   0  0  0  0  0  0  0  0  0  0  0  0
   -3.2603   -0.5245    0.0000 C   0  0  0  0  0  0  0  0  0  0  0  0
   -4.6937   -0.0825    0.0000 C   0  0  0  0  0  0  0  0  0  0  0  0
   -2.1608    0.4958    0.0000 C   0  0  0  0  0  0  0  0  0  0  0  0
   -2.3400    1.9851    0.0000 N   0  0  0  0  0  0  0  0  0  0  0  0
   -0.9790    2.6157    0.0000 C   0  0  0  0  0  0  0  0  0  0  0  0
   -0.6892    4.0874    0.0000 O   0  0  0  0  0  0  0  0  0  0  0  0
    0.0413    1.5162    0.0000 C   0  0  0  0  0  0  0  0  0  0  0  0
   -0.6891    0.2060    0.0000 C   0  0  0  0  0  0  0  0  0  0  0  0
    0.0804   -1.0816    0.0000 N   0  0  0  0  0  0  0  0  0  0  0  0
   -0.6501   -2.3918    0.0000 C   0  0  0  0  0  0  0  0  0  0  0  0
    1.5802   -1.0591    0.0000 C   0  0  0  0  0  0  0  0  0  0  0  0
    2.3496   -2.3467    0.0000 C   0  0  0  0  0  0  0  0  0  0  0  0
    3.8494   -2.3242    0.0000 C   0  0  0  0  0  0  0  0  0  0  0  0
    4.5798   -1.0140    0.0000 C   0  0  0  0  0  0  0  0  0  0  0  0
    3.8104    0.2736    0.0000 C   0  0  0  0  0  0  0  0  0  0  0  0
    2.3106    0.2511    0.0000 C   0  0  0  0  0  0  0  0  0  0  0  0
    1.5412    1.5387    0.0000 C   0  0  0  0  0  0  0  0  0  0  0  0
    2.2716    2.8489    0.0000 O   0  0  0  0  0  0  0  0  0  0  0  0
  1  2  1  0
  2  3  1  0
  3  4  1  6
  3  5  1  0
  5  6  1  1
  6  7  1  0
  7  8  2  0
  7  9  1  0
  9 10  2  0
 10 11  1  0
 11 12  1  0
 11 13  1  0
 13 14  2  0
 14 15  1  0
 15 16  2  0
 16 17  1  0
 17 18  2  0
 18 19  1  0
 19 20  2  0
 10  5  1  0
 18 13  1  0
 19  9  1  0
M  END
>  <identifier>  (578) 
CNP0186650.1

>  <canonical_smiles>  (578) 
CC[C@H](C)[C@H]1NC(=O)C2=C1N(C)C1=CC=CC=C1C2=O

>  <standard_inchi>  (578) 
InChI=1S/C16H18N2O2/c1-4-9(2)13-14-12(16(20)17-13)15(19)10-7-5-6-8-11(10)18(14)3/h5-9,13H,4H2,1-3H3,(H,17,20)/t9-,13+/m0/s1

>  <standard_inchi_key>  (578) 
FLHQAMWKNPOTDV-TVQRCGJNSA-N

>  <name>  (578) 
Quinolactacin A1

>  <iupac_name>  (578) 
(3~{R})-4-methyl-3-[(1~{S})-1-methylpropyl]-2,3-dihydropyrrolo[3,4-b]quinoline-1,9-dione

>  <annotation_level>  (578) 
5

>  <total_atom_count>  (578) 
38

>  <heavy_atom_count>  (578) 
20

>  <molecular_weight>  (578) 
270.33

>  <exact_molecular_weight>  (578) 
270.13683

>  <molecular_formula>  (578) 
C16H18N2O2

>  <alogp>  (578) 
2.37

>  <topological_polar_surface_area>  (578) 
51.10

>  <rotatable_bond_count>  (578) 
2

>  <hydrogen_bond_acceptors>  (578) 
3

>  <hydrogen_bond_donors>  (578) 
1

>  <hydrogen_bond_acceptors_lipinski>  (578) 
3

>  <hydrogen_bond_donors_lipinski>  (578) 
1

>  <lipinski_rule_of_five_violations>  (578) 
0

>  <aromatic_rings_count>  (578) 
2

>  <qed_drug_likeliness>  (578) 
0.91

>  <formal_charge>  (578) 
0

>  <fractioncsp3>  (578) 
0.38

>  <number_of_minimal_rings>  (578) 
3

>  <van_der_walls_volume>  (578) 
250.24

>  <contains_sugar>  (578) 
False

>  <contains_ring_sugars>  (578) 
False

>  <contains_linear_sugars>  (578) 
False

>  <murcko_framework>  (578) 
c1ccc2c(c1)NC3=C(CNC3)C2

>  <np_likeness>  (578) 
0.59

>  <chemical_class>  (578) 
Quinolines and derivatives

>  <chemical_sub_class>  (578) 
Quinolones and derivatives

>  <chemical_super_class>  (578) 
Organoheterocyclic compounds

>  <direct_parent_classification>  (578) 
Hydroquinolones

>  <np_classifier_pathway>  (578) 
Alkaloids

>  <np_classifier_superclass>  (578) 
Anthranilic acid alkaloids

>  <np_classifier_class>  (578) 
Acridone alkaloids

>  <np_classifier_is_glycoside>  (578) 
False

>  <organisms>  (578) 
Penicillium spathulatum B36

>  <collections>  (578) 
BIOFACQUIM|EMNPD|Latin America dataset|Super Natural II|ZINC NP

>  <dois>  (578) 
10.1055/s-0042-111393

>  <synonyms>  (578) 
(+)-Quinolactacin A1|815576-68-2|(3R)-2|3-dihydro-4-methyl-3-(1S)-1-methylpropyl-1H-pyrrolo3|4-bquinoline-1|9(4H)-dione|HY-N7480A|(3R)-3-(2S)-butan-2-yl-4-methyl-2|3-dihydropyrrolo3|4-bquinoline-1|9-dione|CS-0136107|Quinolactacins A1

>  <cas>  (578) 
815576-68-2

$$$$

     RDKit          2D

 20 22  0  0  0  0  0  0  0  0999 V2000
   -4.0260   -3.0072    0.0000 C   0  0  0  0  0  0  0  0  0  0  0  0
   -2.9265   -1.9869    0.0000 C   0  0  0  0  0  0  0  0  0  0  0  0
   -3.2603   -0.5245    0.0000 C   0  0  0  0  0  0  0  0  0  0  0  0
   -4.6937   -0.0825    0.0000 C   0  0  0  0  0  0  0  0  0  0  0  0
   -2.1608    0.4958    0.0000 C   0  0  0  0  0  0  0  0  0  0  0  0
   -2.3400    1.9851    0.0000 N   0  0  0  0  0  0  0  0  0  0  0  0
   -0.9790    2.6157    0.0000 C   0  0  0  0  0  0  0  0  0  0  0  0
   -0.6892    4.0874    0.0000 O   0  0  0  0  0  0  0  0  0  0  0  0
    0.0413    1.5162    0.0000 C   0  0  0  0  0  0  0  0  0  0  0  0
   -0.6891    0.2060    0.0000 C   0  0  0  0  0  0  0  0  0  0  0  0
    0.0804   -1.0816    0.0000 N   0  0  0  0  0  0  0  0  0  0  0  0
   -0.6501   -2.3918    0.0000 C   0  0  0  0  0  0  0  0  0  0  0  0
    1.5802   -1.0591    0.0000 C   0  0  0  0  0  0  0  0  0  0  0  0
    2.3496   -2.3467    0.0000 C   0  0  0  0  0  0  0  0  0  0  0  0
    3.8494   -2.3242    0.0000 C   0  0  0  0  0  0  0  0  0  0  0  0
    4.5798   -1.0140    0.0000 C   0  0  0  0  0  0  0  0  0  0  0  0
    3.8104    0.2736    0.0000 C   0  0  0  0  0  0  0  0  0  0  0  0
    2.3106    0.2511    0.0000 C   0  0  0  0  0  0  0  0  0  0  0  0
    1.5412    1.5387    0.0000 C   0  0  0  0  0  0  0  0  0  0  0  0
    2.2716    2.8489    0.0000 O   0  0  0  0  0  0  0  0  0  0  0  0
  1  2  1  0
  2  3  1  0
  3  4  1  6
  3  5  1  0
  5  6  1  6
  6  7  1  0
  7  8  2  0
  7  9  1  0
  9 10  2  0
 10 11  1  0
 11 12  1  0
 11 13  1  0
 13 14  2  0
 14 15  1  0
 15 16  2  0
 16 17  1  0
 17 18  2  0
 18 19  1  0
 19 20  2  0
 10  5  1  0
 18 13  1  0
 19  9  1  0
M  END
>  <identifier>  (579) 
CNP0186650.2

>  <canonical_smiles>  (579) 
CC[C@H](C)[C@@H]1NC(=O)C2=C1N(C)C1=CC=CC=C1C2=O

>  <standard_inchi>  (579) 
InChI=1S/C16H18N2O2/c1-4-9(2)13-14-12(16(20)17-13)15(19)10-7-5-6-8-11(10)18(14)3/h5-9,13H,4H2,1-3H3,(H,17,20)/t9-,13-/m0/s1

>  <standard_inchi_key>  (579) 
FLHQAMWKNPOTDV-ZANVPECISA-N

>  <name>  (579) 
Quinolactacin A2

>  <iupac_name>  (579) 
(3~{S})-4-methyl-3-[(1~{S})-1-methylpropyl]-2,3-dihydropyrrolo[3,4-b]quinoline-1,9-dione

>  <annotation_level>  (579) 
5

>  <total_atom_count>  (579) 
38

>  <heavy_atom_count>  (579) 
20

>  <molecular_weight>  (579) 
270.33

>  <exact_molecular_weight>  (579) 
270.13683

>  <molecular_formula>  (579) 
C16H18N2O2

>  <alogp>  (579) 
2.37

>  <topological_polar_surface_area>  (579) 
51.10

>  <rotatable_bond_count>  (579) 
2

>  <hydrogen_bond_acceptors>  (579) 
3

>  <hydrogen_bond_donors>  (579) 
1

>  <hydrogen_bond_acceptors_lipinski>  (579) 
3

>  <hydrogen_bond_donors_lipinski>  (579) 
1

>  <lipinski_rule_of_five_violations>  (579) 
0

>  <aromatic_rings_count>  (579) 
2

>  <qed_drug_likeliness>  (579) 
0.91

>  <formal_charge>  (579) 
0

>  <fractioncsp3>  (579) 
0.38

>  <number_of_minimal_rings>  (579) 
3

>  <van_der_walls_volume>  (579) 
250.39

>  <contains_sugar>  (579) 
False

>  <contains_ring_sugars>  (579) 
False

>  <contains_linear_sugars>  (579) 
False

>  <murcko_framework>  (579) 
c1ccc2c(c1)NC3=C(CNC3)C2

>  <np_likeness>  (579) 
0.59

>  <chemical_class>  (579) 
Quinolines and derivatives

>  <chemical_sub_class>  (579) 
Quinolones and derivatives

>  <chemical_super_class>  (579) 
Organoheterocyclic compounds

>  <direct_parent_classification>  (579) 
Hydroquinolones

>  <np_classifier_pathway>  (579) 
Alkaloids

>  <np_classifier_superclass>  (579) 
Anthranilic acid alkaloids

>  <np_classifier_class>  (579) 
Acridone alkaloids

>  <np_classifier_is_glycoside>  (579) 
False

>  <organisms>  (579) 
Penicillium citrinum|Penicillium citrinum 90648|Penicillium spathulatum B37

>  <collections>  (579) 
BIOFACQUIM|KNApSaCK|Latin America dataset|NPAtlas|Super Natural II|ZINC NP

>  <dois>  (579) 
10.1055/s-0042-111393|10.7164/antibiotics.54.831

>  <synonyms>  (579) 
(3S)-3-(2S)-butan-2-yl-4-methyl-2|3-dihydropyrrolo3|4-bquinoline-1|9-dione|CHEBI:207549|Quinolactacins A2|(+)-Quinolactacin A2

>  <cas>  (579) 
nan

$$$$

     RDKit          2D

 17 19  0  0  0  0  0  0  0  0999 V2000
    0.1439    3.0000    0.0000 C   0  0  0  0  0  0  0  0  0  0  0  0
    0.1439    1.5000    0.0000 N   0  0  0  0  0  0  0  0  0  0  0  0
   -1.1551    0.7500    0.0000 C   0  0  0  0  0  0  0  0  0  0  0  0
   -1.1551   -0.7500    0.0000 C   0  0  0  0  0  0  0  0  0  0  0  0
   -2.5817   -1.2135    0.0000 C   0  0  0  0  0  0  0  0  0  0  0  0
   -3.0452   -2.6401    0.0000 O   0  0  0  0  0  0  0  0  0  0  0  0
   -3.4634   -0.0000    0.0000 N   0  0  0  0  0  0  0  0  0  0  0  0
   -2.5817    1.2135    0.0000 C   0  0  0  0  0  0  0  0  0  0  0  0
   -3.0452    2.6401    0.0000 O   0  0  0  0  0  0  0  0  0  0  0  0
    0.1439   -1.5000    0.0000 C   0  0  0  0  0  0  0  0  0  0  0  0
    0.1439   -3.0000    0.0000 O   0  0  0  0  0  0  0  0  0  0  0  0
    1.4429   -0.7500    0.0000 C   0  0  0  0  0  0  0  0  0  0  0  0
    2.7420   -1.5000    0.0000 C   0  0  0  0  0  0  0  0  0  0  0  0
    4.0410   -0.7500    0.0000 C   0  0  0  0  0  0  0  0  0  0  0  0
    4.0410    0.7500    0.0000 C   0  0  0  0  0  0  0  0  0  0  0  0
    2.7420    1.5000    0.0000 C   0  0  0  0  0  0  0  0  0  0  0  0
    1.4429    0.7500    0.0000 C   0  0  0  0  0  0  0  0  0  0  0  0
  1  2  1  0
  2  3  1  0
  3  4  2  0
  4  5  1  0
  5  6  2  0
  5  7  1  0
  7  8  1  0
  8  9  2  0
  4 10  1  0
 10 11  2  0
 10 12  1  0
 12 13  2  0
 13 14  1  0
 14 15  2  0
 15 16  1  0
 16 17  2  0
 17  2  1  0
  8  3  1  0
 17 12  1  0
M  END
>  <identifier>  (580) 
CNP0286273.0

>  <canonical_smiles>  (580) 
CN1C2=C(C(=O)NC2=O)C(=O)C2=CC=CC=C21

>  <standard_inchi>  (580) 
InChI=1S/C12H8N2O3/c1-14-7-5-3-2-4-6(7)10(15)8-9(14)12(17)13-11(8)16/h2-5H,1H3,(H,13,16,17)

>  <standard_inchi_key>  (580) 
VMRNXWXXUDWZEX-UHFFFAOYSA-N

>  <name>  (580) 
quinolonimide

>  <iupac_name>  (580) 
4-methylpyrrolo[3,4-b]quinoline-1,3,9-trione

>  <annotation_level>  (580) 
5

>  <total_atom_count>  (580) 
25

>  <heavy_atom_count>  (580) 
17

>  <molecular_weight>  (580) 
228.21

>  <exact_molecular_weight>  (580) 
228.05349

>  <molecular_formula>  (580) 
C12H8N2O3

>  <alogp>  (580) 
0.42

>  <topological_polar_surface_area>  (580) 
68.17

>  <rotatable_bond_count>  (580) 
0

>  <hydrogen_bond_acceptors>  (580) 
4

>  <hydrogen_bond_donors>  (580) 
1

>  <hydrogen_bond_acceptors_lipinski>  (580) 
4

>  <hydrogen_bond_donors_lipinski>  (580) 
1

>  <lipinski_rule_of_five_violations>  (580) 
0

>  <aromatic_rings_count>  (580) 
2

>  <qed_drug_likeliness>  (580) 
0.66

>  <formal_charge>  (580) 
0

>  <fractioncsp3>  (580) 
0.08

>  <number_of_minimal_rings>  (580) 
3

>  <van_der_walls_volume>  (580) 
187.78

>  <contains_sugar>  (580) 
False

>  <contains_ring_sugars>  (580) 
False

>  <contains_linear_sugars>  (580) 
False

>  <murcko_framework>  (580) 
c1ccc2c(c1)NC3=C(CNC3)C2

>  <np_likeness>  (580) 
-0.10

>  <chemical_class>  (580) 
Quinolines and derivatives

>  <chemical_sub_class>  (580) 
Quinolones and derivatives

>  <chemical_super_class>  (580) 
Organoheterocyclic compounds

>  <direct_parent_classification>  (580) 
Hydroquinolones

>  <np_classifier_pathway>  (580) 
Alkaloids

>  <np_classifier_superclass>  (580) 
Anthranilic acid alkaloids

>  <np_classifier_class>  (580) 
Acridone alkaloids

>  <np_classifier_is_glycoside>  (580) 
False

>  <organisms>  (580) 
Penicillium citrinum|Penicillium spathulatum B39

>  <collections>  (580) 
BIOFACQUIM|EMNPD|Latin America dataset|NPAtlas|Super Natural II|UNPD (Universal Natural Products Database)

>  <dois>  (580) 
10.1039/b600959j|10.1055/s-0042-111393

>  <synonyms>  (580) 
VMRNXWXXUDWZEX-UHFFFAOYSA-|CHEBI:209713|4-methylpyrrolo3|4-bquinoline-1|3|9-trione|InChI=1\/C12H8N2O3\/c1-14-7-5-3-2-4-6(7)10(15)8-9(14)12(17)13-11(8)16\/h2-5H|1H3|(H|13|16|17)|Quinolonimide

>  <cas>  (580) 
nan

$$$$

     RDKit          2D

 19 21  0  0  0  0  0  0  0  0999 V2000
   -4.7577   -1.2195    0.0000 C   0  0  0  0  0  0  0  0  0  0  0  0
   -3.2648   -1.3651    0.0000 C   0  0  0  0  0  0  0  0  0  0  0  0
   -2.6445   -2.7309    0.0000 C   0  0  0  0  0  0  0  0  0  0  0  0
   -2.3922   -0.1451    0.0000 C   0  0  0  0  0  0  0  0  0  0  0  0
   -2.8663    1.2780    0.0000 N   0  0  0  0  0  0  0  0  0  0  0  0
   -1.6594    2.1687    0.0000 C   0  0  0  0  0  0  0  0  0  0  0  0
   -1.6706    3.6687    0.0000 O   0  0  0  0  0  0  0  0  0  0  0  0
   -0.4394    1.2961    0.0000 C   0  0  0  0  0  0  0  0  0  0  0  0
   -0.8922   -0.1339    0.0000 C   0  0  0  0  0  0  0  0  0  0  0  0
    0.1197   -1.2411    0.0000 N   0  0  0  0  0  0  0  0  0  0  0  0
   -0.3331   -2.6711    0.0000 C   0  0  0  0  0  0  0  0  0  0  0  0
    1.5846   -0.9183    0.0000 C   0  0  0  0  0  0  0  0  0  0  0  0
    2.5966   -2.0255    0.0000 C   0  0  0  0  0  0  0  0  0  0  0  0
    4.0614   -1.7027    0.0000 C   0  0  0  0  0  0  0  0  0  0  0  0
    4.5143   -0.2727    0.0000 C   0  0  0  0  0  0  0  0  0  0  0  0
    3.5023    0.8345    0.0000 C   0  0  0  0  0  0  0  0  0  0  0  0
    2.0375    0.5117    0.0000 C   0  0  0  0  0  0  0  0  0  0  0  0
    1.0255    1.6189    0.0000 C   0  0  0  0  0  0  0  0  0  0  0  0
    1.4784    3.0489    0.0000 O   0  0  0  0  0  0  0  0  0  0  0  0
  1  2  1  0
  2  3  1  0
  4  2  1  1
  4  5  1  0
  5  6  1  0
  6  7  2  0
  6  8  1  0
  8  9  2  0
  9 10  1  0
 10 11  1  0
 10 12  1  0
 12 13  2  0
 13 14  1  0
 14 15  2  0
 15 16  1  0
 16 17  2  0
 17 18  1  0
 18 19  2  0
  9  4  1  0
 17 12  1  0
 18  8  1  0
M  END
>  <identifier>  (581) 
CNP0169232.1

>  <canonical_smiles>  (581) 
CC(C)[C@H]1NC(=O)C2=C1N(C)C1=CC=CC=C1C2=O

>  <standard_inchi>  (581) 
InChI=1S/C15H16N2O2/c1-8(2)12-13-11(15(19)16-12)14(18)9-6-4-5-7-10(9)17(13)3/h4-8,12H,1-3H3,(H,16,19)/t12-/m1/s1

>  <standard_inchi_key>  (581) 
YCGFIOZHNUQYSK-GFCCVEGCSA-N

>  <name>  (581) 
nan

>  <iupac_name>  (581) 
(3~{R})-3-isopropyl-4-methyl-2,3-dihydropyrrolo[3,4-b]quinoline-1,9-dione

>  <annotation_level>  (581) 
5

>  <total_atom_count>  (581) 
35

>  <heavy_atom_count>  (581) 
19

>  <molecular_weight>  (581) 
256.31

>  <exact_molecular_weight>  (581) 
256.12118

>  <molecular_formula>  (581) 
C15H16N2O2

>  <alogp>  (581) 
1.98

>  <topological_polar_surface_area>  (581) 
51.10

>  <rotatable_bond_count>  (581) 
1

>  <hydrogen_bond_acceptors>  (581) 
3

>  <hydrogen_bond_donors>  (581) 
1

>  <hydrogen_bond_acceptors_lipinski>  (581) 
3

>  <hydrogen_bond_donors_lipinski>  (581) 
1

>  <lipinski_rule_of_five_violations>  (581) 
0

>  <aromatic_rings_count>  (581) 
2

>  <qed_drug_likeliness>  (581) 
0.85

>  <formal_charge>  (581) 
0

>  <fractioncsp3>  (581) 
0.33

>  <number_of_minimal_rings>  (581) 
3

>  <van_der_walls_volume>  (581) 
232.99

>  <contains_sugar>  (581) 
False

>  <contains_ring_sugars>  (581) 
False

>  <contains_linear_sugars>  (581) 
False

>  <murcko_framework>  (581) 
c1ccc2c(c1)NC3=C(CNC3)C2

>  <np_likeness>  (581) 
0.46

>  <chemical_class>  (581) 
Quinolines and derivatives

>  <chemical_sub_class>  (581) 
Quinolones and derivatives

>  <chemical_super_class>  (581) 
Organoheterocyclic compounds

>  <direct_parent_classification>  (581) 
Hydroquinolones

>  <np_classifier_pathway>  (581) 
Alkaloids

>  <np_classifier_superclass>  (581) 
Anthranilic acid alkaloids

>  <np_classifier_class>  (581) 
Acridone alkaloids

>  <np_classifier_is_glycoside>  (581) 
False

>  <organisms>  (581) 
Penicillium spathulatum B38

>  <collections>  (581) 
BIOFACQUIM|Latin America dataset|ZINC NP

>  <dois>  (581) 
10.1055/s-0042-111393

>  <synonyms>  (581) 
Quinolactacins B

>  <cas>  (581) 
nan

$$$$

     RDKit          2D

 38 41  0  0  0  0  0  0  0  0999 V2000
   -4.9400    0.9387    0.0000 O   0  0  0  0  0  0  0  0  0  0  0  0
   -3.5421    1.4828    0.0000 C   0  0  0  0  0  0  0  0  0  0  0  0
   -2.3720    0.5442    0.0000 N   0  0  0  0  0  0  0  0  0  0  0  0
   -2.5998   -0.9384    0.0000 C   0  0  0  0  0  0  0  0  0  0  0  0
   -1.4298   -1.8770    0.0000 C   0  0  0  0  0  0  0  0  0  0  0  0
   -0.0319   -1.3330    0.0000 O   0  0  0  0  0  0  0  0  0  0  0  0
    1.1382   -2.2716    0.0000 C   0  0  0  0  0  0  0  0  0  0  0  0
    0.9104   -3.7542    0.0000 O   0  0  0  0  0  0  0  0  0  0  0  0
    2.5361   -1.7276    0.0000 C   0  0  0  0  0  0  0  0  0  0  0  0
    3.7061   -2.6661    0.0000 C   0  0  0  0  0  0  0  0  0  0  0  0
    5.1040   -2.1221    0.0000 C   0  0  0  0  0  0  0  0  0  0  0  0
    6.2741   -3.0607    0.0000 C   0  0  0  0  0  0  0  0  0  0  0  0
    7.6719   -2.5167    0.0000 C   0  0  0  0  0  0  0  0  0  0  0  0
    7.8997   -1.0341    0.0000 C   0  0  0  0  0  0  0  0  0  0  0  0
    6.7297   -0.0955    0.0000 C   0  0  0  0  0  0  0  0  0  0  0  0
    5.3318   -0.6395    0.0000 C   0  0  0  0  0  0  0  0  0  0  0  0
    2.7639   -0.2449    0.0000 N   0  0  0  0  0  0  0  0  0  0  0  0
    1.5938    0.6936    0.0000 C   0  0  0  0  0  0  0  0  0  0  0  0
    0.1959    0.1496    0.0000 O   0  0  0  0  0  0  0  0  0  0  0  0
    1.8216    2.1762    0.0000 C   0  0  0  0  0  0  0  0  0  0  0  0
    3.2195    2.7203    0.0000 C   0  0  0  0  0  0  0  0  0  0  0  0
    3.4473    4.2029    0.0000 C   0  0  0  0  0  0  0  0  0  0  0  0
    2.2772    5.1414    0.0000 C   0  0  0  0  0  0  0  0  0  0  0  0
    0.8793    4.5974    0.0000 C   0  0  0  0  0  0  0  0  0  0  0  0
    0.6515    3.1148    0.0000 C   0  0  0  0  0  0  0  0  0  0  0  0
   -3.9977   -1.4824    0.0000 C   0  0  0  0  0  0  0  0  0  0  0  0
   -4.2255   -2.9650    0.0000 C   0  0  0  0  0  0  0  0  0  0  0  0
   -3.0554   -3.9036    0.0000 C   0  0  0  0  0  0  0  0  0  0  0  0
   -3.2832   -5.3862    0.0000 C   0  0  0  0  0  0  0  0  0  0  0  0
   -4.6811   -5.9302    0.0000 C   0  0  0  0  0  0  0  0  0  0  0  0
   -5.8512   -4.9917    0.0000 C   0  0  0  0  0  0  0  0  0  0  0  0
   -5.6234   -3.5091    0.0000 C   0  0  0  0  0  0  0  0  0  0  0  0
   -3.3143    2.9654    0.0000 C   0  0  0  0  0  0  0  0  0  0  0  0
   -1.9164    3.5094    0.0000 C   0  0  0  0  0  0  0  0  0  0  0  0
   -1.6886    4.9920    0.0000 C   0  0  0  0  0  0  0  0  0  0  0  0
   -2.8587    5.9306    0.0000 C   0  0  0  0  0  0  0  0  0  0  0  0
   -4.2566    5.3865    0.0000 C   0  0  0  0  0  0  0  0  0  0  0  0
   -4.4844    3.9039    0.0000 C   0  0  0  0  0  0  0  0  0  0  0  0
  1  2  2  0
  2  3  1  0
  3  4  1  0
  4  5  1  6
  5  6  1  0
  6  7  1  0
  7  8  2  0
  7  9  1  0
  9 10  1  1
 10 11  1  0
 11 12  2  0
 12 13  1  0
 13 14  2  0
 14 15  1  0
 15 16  2  0
  9 17  1  0
 17 18  1  0
 18 19  2  0
 18 20  1  0
 20 21  2  0
 21 22  1  0
 22 23  2  0
 23 24  1  0
 24 25  2  0
  4 26  1  0
 26 27  1  0
 27 28  2  0
 28 29  1  0
 29 30  2  0
 30 31  1  0
 31 32  2  0
  2 33  1  0
 33 34  2  0
 34 35  1  0
 35 36  2  0
 36 37  1  0
 37 38  2  0
 16 11  1  0
 25 20  1  0
 32 27  1  0
 38 33  1  0
M  END
>  <identifier>  (582) 
CNP0371247.1

>  <canonical_smiles>  (582) 
O=C(N[C@H](COC(=O)[C@H](CC1=CC=CC=C1)NC(=O)C1=CC=CC=C1)CC1=CC=CC=C1)C1=CC=CC=C1

>  <standard_inchi>  (582) 
InChI=1S/C32H30N2O4/c35-30(26-17-9-3-10-18-26)33-28(21-24-13-5-1-6-14-24)23-38-32(37)29(22-25-15-7-2-8-16-25)34-31(36)27-19-11-4-12-20-27/h1-20,28-29H,21-23H2,(H,33,35)(H,34,36)/t28-,29-/m0/s1

>  <standard_inchi_key>  (582) 
CVULDJMCSSACEO-VMPREFPWSA-N

>  <name>  (582) 
Asperphenamate

>  <iupac_name>  (582) 
[(2~{S})-2-benzamido-3-phenyl-propyl] (2~{S})-2-benzamido-3-phenyl-propanoate

>  <annotation_level>  (582) 
5

>  <total_atom_count>  (582) 
68

>  <heavy_atom_count>  (582) 
38

>  <molecular_weight>  (582) 
506.6

>  <exact_molecular_weight>  (582) 
506.22056

>  <molecular_formula>  (582) 
C32H30N2O4

>  <alogp>  (582) 
4.61

>  <topological_polar_surface_area>  (582) 
84.50

>  <rotatable_bond_count>  (582) 
11

>  <hydrogen_bond_acceptors>  (582) 
4

>  <hydrogen_bond_donors>  (582) 
2

>  <hydrogen_bond_acceptors_lipinski>  (582) 
4

>  <hydrogen_bond_donors_lipinski>  (582) 
2

>  <lipinski_rule_of_five_violations>  (582) 
1

>  <aromatic_rings_count>  (582) 
4

>  <qed_drug_likeliness>  (582) 
0.29

>  <formal_charge>  (582) 
0

>  <fractioncsp3>  (582) 
0.16

>  <number_of_minimal_rings>  (582) 
4

>  <van_der_walls_volume>  (582) 
470.00

>  <contains_sugar>  (582) 
False

>  <contains_ring_sugars>  (582) 
False

>  <contains_linear_sugars>  (582) 
False

>  <murcko_framework>  (582) 
O(CC(NCc1ccccc1)Cc2ccccc2)CC(NCc3ccccc3)Cc4ccccc4

>  <np_likeness>  (582) 
-0.14

>  <chemical_class>  (582) 
Carboxylic acids and derivatives

>  <chemical_sub_class>  (582) 
Amino acids, peptides, and analogues

>  <chemical_super_class>  (582) 
Organic acids and derivatives

>  <direct_parent_classification>  (582) 
Phenylalanine and derivatives

>  <np_classifier_pathway>  (582) 
nan

>  <np_classifier_superclass>  (582) 
nan

>  <np_classifier_class>  (582) 
nan

>  <np_classifier_is_glycoside>  (582) 
False

>  <organisms>  (582) 
Antidesma ghaesembilla|Artemisia anomala|Aspergillus flavipes|Begonia nantoensis|Daphne genkwa|Leucas aspera|Penicillium spathulatum B40|Uvaria rufa

>  <collections>  (582) 
Australian natural products|BIOFACQUIM|CMAUP (cCollective molecular activities of useful plants)|GNPS (Global Natural Products Social Molecular Networking)|KNApSaCK|Latin America dataset|NPASS|NPAtlas|Super Natural II|TCMDB-Taiwan (Traditional Chinese Medicine database)|VietHerb|ZINC NP

>  <dois>  (582) 
10.1016/j.bse.2010.08.007|10.1021/np058118m|10.1055/s-0042-111394|10.1055/s-0043-110141

>  <synonyms>  (582) 
63631-36-7|Auranamide|anabellamide|asjanin|2H4MD59YVT|UNII-2H4MD59YVT|(2S)-2-benzamido-3-phenylpropyl (2S)-2-benzamido-3-phenylpropanoate|NSC 306231|N-Benzoylphenylalanine-2-benzamido-3-phenyl propyl ester|3-Phenyl-2-(benzoylamino)propanoic acid 2-(benzoylamino)-3-phenylpropyl ester|Asperphenamate_120258|CHEMBL496238|MEGxm0_000143|ACon0_001364|ACon1_002244|CHEBI:145105|MFCD30180097|AKOS040732480|NCGC00170024-01|HY-129578|CS-0106762|F94691|BRD-K77990213-001-01-6|(2S)-2-benzamido-3-phenylpropyl N-benzoyl-L-phenylalaninate|N-BENZOYL-L-PHENYLALANINOL N-BENZOYL-L-PHENYLALANINATE|N-benzoyl-L-phenylalanine|2S-(benzoylamino)-3-phenylpropyl ester|N-BENZOYL-PHENYLALANINE 2-BENZOYLAMINO-3-PHENYLPROPYL ESTER|L-PHENYLALANINE| N-BENZOYL-| (2S)-2-(BENZOYLAMINO)-3-PHENYLPROPYL ESTER|Asperphenamate

>  <cas>  (582) 
63631-36-7

$$$$

     RDKit          2D

 24 26  0  0  0  0  0  0  0  0999 V2000
   -7.2534   -1.0370    0.0000 C   0  0  0  0  0  0  0  0  0  0  0  0
   -5.8976   -0.3955    0.0000 C   0  0  0  0  0  0  0  0  0  0  0  0
   -5.7752    1.0996    0.0000 O   0  0  0  0  0  0  0  0  0  0  0  0
   -4.6640   -1.2489    0.0000 C   0  0  0  0  0  0  0  0  0  0  0  0
   -3.3081   -0.6073    0.0000 C   0  0  0  0  0  0  0  0  0  0  0  0
   -3.1858    0.8877    0.0000 C   0  0  0  0  0  0  0  0  0  0  0  0
   -1.8300    1.5293    0.0000 C   0  0  0  0  0  0  0  0  0  0  0  0
   -1.7077    3.0243    0.0000 O   0  0  0  0  0  0  0  0  0  0  0  0
   -0.5964    0.6759    0.0000 C   0  0  0  0  0  0  0  0  0  0  0  0
    0.7595    1.3175    0.0000 C   0  0  0  0  0  0  0  0  0  0  0  0
    0.8818    2.8125    0.0000 O   0  0  0  0  0  0  0  0  0  0  0  0
    1.9930    0.4640    0.0000 C   0  0  0  0  0  0  0  0  0  0  0  0
    3.3489    1.1056    0.0000 C   0  0  0  0  0  0  0  0  0  0  0  0
    3.4712    2.6006    0.0000 O   0  0  0  0  0  0  0  0  0  0  0  0
    4.5825    0.2522    0.0000 C   0  0  0  0  0  0  0  0  0  0  0  0
    5.9383    0.8938    0.0000 Cl  0  0  0  0  0  0  0  0  0  0  0  0
    4.4602   -1.2428    0.0000 C   0  0  0  0  0  0  0  0  0  0  0  0
    5.6937   -2.0962    0.0000 O   0  0  0  0  0  0  0  0  0  0  0  0
    3.1043   -1.8844    0.0000 C   0  0  0  0  0  0  0  0  0  0  0  0
    1.8707   -1.0310    0.0000 C   0  0  0  0  0  0  0  0  0  0  0  0
    0.5149   -1.6725    0.0000 C   0  0  0  0  0  0  0  0  0  0  0  0
    0.3926   -3.1676    0.0000 O   0  0  0  0  0  0  0  0  0  0  0  0
   -0.7187   -0.8191    0.0000 C   0  0  0  0  0  0  0  0  0  0  0  0
   -2.0746   -1.4607    0.0000 C   0  0  0  0  0  0  0  0  0  0  0  0
  2  1  1  6
  2  3  1  0
  2  4  1  0
  4  5  1  0
  5  6  2  0
  6  7  1  0
  7  8  1  0
  7  9  2  0
  9 10  1  0
 10 11  2  0
 10 12  1  0
 12 13  2  0
 13 14  1  0
 13 15  1  0
 15 16  1  0
 15 17  2  0
 17 18  1  0
 17 19  1  0
 19 20  2  0
 20 21  1  0
 21 22  2  0
 21 23  1  0
 23 24  2  0
 24  5  1  0
 23  9  1  0
 20 12  1  0
M  END
>  <identifier>  (583) 
CNP0087351.1

>  <canonical_smiles>  (583) 
C[C@H](O)CC1=CC(O)=C2C(=O)C3=C(O)C(Cl)=C(O)C=C3C(=O)C2=C1

>  <standard_inchi>  (583) 
InChI=1S/C17H13ClO6/c1-6(19)2-7-3-8-12(10(20)4-7)16(23)13-9(15(8)22)5-11(21)14(18)17(13)24/h3-6,19-21,24H,2H2,1H3/t6-/m0/s1

>  <standard_inchi_key>  (583) 
RILOVTGOFDASJT-LURJTMIESA-N

>  <name>  (583) 
nan

>  <iupac_name>  (583) 
2-chloro-1,3,8-trihydroxy-6-[(2~{S})-2-hydroxypropyl]anthracene-9,10-dione

>  <annotation_level>  (583) 
5

>  <total_atom_count>  (583) 
37

>  <heavy_atom_count>  (583) 
24

>  <molecular_weight>  (583) 
348.74

>  <exact_molecular_weight>  (583) 
348.04007

>  <molecular_formula>  (583) 
C17H13ClO6

>  <alogp>  (583) 
2.16

>  <topological_polar_surface_area>  (583) 
115.06

>  <rotatable_bond_count>  (583) 
2

>  <hydrogen_bond_acceptors>  (583) 
6

>  <hydrogen_bond_donors>  (583) 
4

>  <hydrogen_bond_acceptors_lipinski>  (583) 
6

>  <hydrogen_bond_donors_lipinski>  (583) 
4

>  <lipinski_rule_of_five_violations>  (583) 
0

>  <aromatic_rings_count>  (583) 
2

>  <qed_drug_likeliness>  (583) 
0.56

>  <formal_charge>  (583) 
0

>  <fractioncsp3>  (583) 
0.18

>  <number_of_minimal_rings>  (583) 
3

>  <van_der_walls_volume>  (583) 
278.93

>  <contains_sugar>  (583) 
False

>  <contains_ring_sugars>  (583) 
False

>  <contains_linear_sugars>  (583) 
False

>  <murcko_framework>  (583) 
c1ccc2c(c1)Cc3ccccc3C2

>  <np_likeness>  (583) 
1.62

>  <chemical_class>  (583) 
Anthracenes

>  <chemical_sub_class>  (583) 
Anthraquinones

>  <chemical_super_class>  (583) 
Benzenoids

>  <direct_parent_classification>  (583) 
Hydroxyanthraquinones

>  <np_classifier_pathway>  (583) 
Polyketides

>  <np_classifier_superclass>  (583) 
Polycyclic aromatic polyketides

>  <np_classifier_class>  (583) 
Anthraquinones and anthrones

>  <np_classifier_is_glycoside>  (583) 
False

>  <organisms>  (583) 
Penicillium spathulatum B41

>  <collections>  (583) 
BIOFACQUIM|Latin America dataset|ZINC NP

>  <dois>  (583) 
10.1055/s-0042-111393

>  <synonyms>  (583) 
2-chloro-6-2'(S)-hydroxypropyl-1 3 8-trihydroxy-anthraquinone

>  <cas>  (583) 
nan

$$$$
